
     RDKit          3D

 66 71  0  0  0  0  0  0  0  0999 V2000
   -7.8310   -6.0238  -26.6754 C   0  0  0  0  0  0  0  0  0  0  0  0
   -8.0167   -4.6116  -26.9576 N   0  0  0  0  0  0  0  0  0  0  0  0
   -7.1135   -3.6945  -26.5437 C   0  0  0  0  0  0  0  0  0  0  0  0
   -6.0959   -3.9713  -25.9171 O   0  0  0  0  0  0  0  0  0  0  0  0
   -7.4982   -2.2386  -26.8111 C   0  0  0  0  0  0  0  0  0  0  0  0
   -8.4069   -1.7419  -25.7809 N   0  0  0  0  0  0  0  0  0  0  0  0
   -7.8706   -1.2936  -24.4999 C   0  0  0  0  0  0  0  0  0  0  0  0
   -8.7691   -1.5770  -23.2540 C   0  0  2  0  0  0  0  0  0  0  0  0
   -8.2494   -0.6274  -22.1534 C   0  0  0  0  0  0  0  0  0  0  0  0
   -8.4381    0.5676  -22.0679 O   0  0  0  0  0  0  0  0  0  0  0  0
   -7.4493   -1.3508  -21.2862 N   0  0  0  0  0  0  0  0  0  0  0  0
   -6.6825   -0.7720  -20.2459 C   0  0  0  0  0  0  0  0  0  0  0  0
   -6.9611   -1.1016  -18.9402 C   0  0  0  0  0  0  0  0  0  0  0  0
   -6.2784   -0.6409  -17.8663 N   0  0  0  0  0  0  0  0  0  0  0  0
   -5.2641    0.1588  -18.0938 C   0  0  0  0  0  0  0  0  0  0  0  0
   -4.8399    0.5540  -19.3932 C   0  0  0  0  0  0  0  0  0  0  0  0
   -3.7139    1.4000  -19.5782 C   0  0  0  0  0  0  0  0  0  0  0  0
   -3.3195    1.7613  -20.8369 C   0  0  0  0  0  0  0  0  0  0  0  0
   -4.0309    1.2930  -21.9625 C   0  0  0  0  0  0  0  0  0  0  0  0
   -5.1172    0.4695  -21.8088 C   0  0  0  0  0  0  0  0  0  0  0  0
   -5.5625    0.0859  -20.5111 C   0  0  0  0  0  0  0  0  0  0  0  0
   -5.6493    0.1145  -22.6854 H   0  0  0  0  0  0  0  0  0  0  0  0
   -3.7012    1.5705  -22.9596 H   0  0  0  0  0  0  0  0  0  0  0  0
   -2.4663    2.4173  -20.9835 H   0  0  0  0  0  0  0  0  0  0  0  0
   -3.1826    1.7551  -18.7012 H   0  0  0  0  0  0  0  0  0  0  0  0
   -4.7181    0.5252  -17.2266 H   0  0  0  0  0  0  0  0  0  0  0  0
   -7.7988   -1.7642  -18.7218 H   0  0  0  0  0  0  0  0  0  0  0  0
   -7.3584   -2.7623  -21.6092 C   0  0  0  0  0  0  0  0  0  0  0  0
   -8.5486   -2.9568  -22.5569 C   0  0  2  0  0  0  0  0  0  0  0  0
   -8.4450   -4.1398  -23.5182 C   0  0  0  0  0  0  0  0  0  0  0  0
   -8.3485   -5.4372  -22.8739 N   0  0  0  0  0  0  0  0  0  0  0  0
   -7.1713   -5.9544  -22.4189 C   0  0  0  0  0  0  0  0  0  0  0  0
   -5.9354   -5.6588  -23.0313 C   0  0  0  0  0  0  0  0  0  0  0  0
   -4.8235   -6.2369  -22.4483 C   0  0  0  0  0  0  0  0  0  0  0  0
   -4.8851   -7.0088  -21.3592 N   0  0  0  0  0  0  0  0  0  0  0  0
   -6.1057   -7.2391  -20.8993 C   0  0  0  0  0  0  0  0  0  0  0  0
   -7.2587   -6.7862  -21.3727 N   0  0  0  0  0  0  0  0  0  0  0  0
   -6.1700   -7.8651  -20.0133 H   0  0  0  0  0  0  0  0  0  0  0  0
   -3.8246   -6.0731  -22.8520 H   0  0  0  0  0  0  0  0  0  0  0  0
   -5.8792   -5.0119  -23.9049 H   0  0  0  0  0  0  0  0  0  0  0  0
   -9.1395   -5.6821  -22.2914 H   0  0  0  0  0  0  0  0  0  0  0  0
   -9.3442   -4.1292  -24.1471 H   0  0  0  0  0  0  0  0  0  0  0  0
   -7.5750   -4.0085  -24.1603 H   0  0  0  0  0  0  0  0  0  0  0  0
   -9.4421   -3.1133  -21.9308 H   0  0  0  0  0  0  0  0  0  0  0  0
   -7.4324   -3.3609  -20.6967 H   0  0  0  0  0  0  0  0  0  0  0  0
   -6.3892   -2.9983  -22.0833 H   0  0  0  0  0  0  0  0  0  0  0  0
  -10.2264   -1.3757  -23.6158 C   0  0  0  0  0  0  0  0  0  0  0  0
  -11.1989   -1.1943  -22.6197 C   0  0  0  0  0  0  0  0  0  0  0  0
  -12.5276   -1.0339  -22.9799 C   0  0  0  0  0  0  0  0  0  0  0  0
  -13.7619   -0.8485  -21.7736 Cl  0  0  0  0  0  0  0  0  0  0  0  0
  -12.9341   -1.0399  -24.3112 C   0  0  0  0  0  0  0  0  0  0  0  0
  -11.9879   -1.2649  -25.2885 C   0  0  0  0  0  0  0  0  0  0  0  0
  -10.6584   -1.4771  -24.9415 C   0  0  0  0  0  0  0  0  0  0  0  0
   -9.7346   -1.9076  -26.0239 C   0  0  0  0  0  0  0  0  0  0  0  0
  -10.1445   -2.4229  -27.0655 O   0  0  0  0  0  0  0  0  0  0  0  0
  -12.2564   -1.2953  -26.3373 H   0  0  0  0  0  0  0  0  0  0  0  0
  -13.9819   -0.8974  -24.5450 H   0  0  0  0  0  0  0  0  0  0  0  0
  -10.9139   -1.1689  -21.5735 H   0  0  0  0  0  0  0  0  0  0  0  0
   -7.7084   -0.2080  -24.5341 H   0  0  0  0  0  0  0  0  0  0  0  0
   -6.9002   -1.7918  -24.3756 H   0  0  0  0  0  0  0  0  0  0  0  0
   -6.5812   -1.6469  -26.8616 H   0  0  0  0  0  0  0  0  0  0  0  0
   -8.0287   -2.1772  -27.7595 H   0  0  0  0  0  0  0  0  0  0  0  0
   -8.9052   -4.2701  -27.2952 H   0  0  0  0  0  0  0  0  0  0  0  0
   -7.5923   -6.1772  -25.6152 H   0  0  0  0  0  0  0  0  0  0  0  0
   -8.7545   -6.5532  -26.9130 H   0  0  0  0  0  0  0  0  0  0  0  0
   -7.0190   -6.4439  -27.2766 H   0  0  0  0  0  0  0  0  0  0  0  0
  1  2  1  0
  2  3  1  0
  3  4  2  0
  3  5  1  0
  5  6  1  0
  6  7  1  0
  8  7  1  6
  8  9  1  0
  9 10  2  0
  9 11  1  0
 11 12  1  0
 12 13  2  0
 13 14  1  0
 14 15  2  0
 15 16  1  0
 16 17  2  0
 17 18  1  0
 18 19  2  0
 19 20  1  0
 20 21  2  0
 20 22  1  0
 19 23  1  0
 18 24  1  0
 17 25  1  0
 15 26  1  0
 13 27  1  0
 11 28  1  0
 28 29  1  0
 29 30  1  0
 30 31  1  0
 31 32  1  0
 32 33  2  0
 33 34  1  0
 34 35  2  0
 35 36  1  0
 36 37  2  0
 36 38  1  0
 34 39  1  0
 33 40  1  0
 31 41  1  0
 30 42  1  0
 30 43  1  0
 29 44  1  1
 28 45  1  0
 28 46  1  0
  8 47  1  0
 47 48  2  0
 48 49  1  0
 49 50  1  0
 49 51  2  0
 51 52  1  0
 52 53  2  0
 53 54  1  0
 54 55  2  0
 52 56  1  0
 51 57  1  0
 48 58  1  0
  7 59  1  0
  7 60  1  0
  5 61  1  0
  5 62  1  0
  2 63  1  0
  1 64  1  0
  1 65  1  0
  1 66  1  0
 54  6  1  0
 29  8  1  0
 37 32  1  0
 53 47  1  0
 21 12  1  0
 21 16  1  0
M  END
>  <cnnaffinities>  (1) 
[6.18855]

>  <score>  (1) 
6.18855

>  <index>  (1) 
0

>  <Smiles>  (1) 
C(N(C(=O)C(N1C([C@@]2(C(=O)N(c3c(nc(c4c(c(c(c(c34)[H])[H])[H])[H])[H])[H])C([C@@]2(C(N(c2c(c(nc(n2)[H])[H])[H])[H])([H])[H])[H])([H])[H])c2c(c(Cl)c(c(c2C1=O)[H])[H])[H])([H])[H])([H])[H])[H])([H])([H])[H]

>  <h>  (1) 
<NA>

>  <Training>  (1) 
True

>  <Success>  (1) 
True

>  <enamine_searched>  (1) 
False

>  <enamine_id>  (1) 
nan

$$$$

     RDKit          3D

 68 73  0  0  0  0  0  0  0  0999 V2000
   -7.2827    3.4815  -21.9001 C   0  0  0  0  0  0  0  0  0  0  0  0
   -8.2613    2.9179  -22.8198 N   0  0  0  0  0  0  0  0  0  0  0  0
   -7.8378    2.2314  -23.9200 C   0  0  0  0  0  0  0  0  0  0  0  0
   -6.6527    2.0539  -24.1792 O   0  0  0  0  0  0  0  0  0  0  0  0
   -8.9677    1.7014  -24.8195 C   0  0  0  0  0  0  0  0  0  0  0  0
   -9.5870    0.5189  -24.2341 N   0  0  0  0  0  0  0  0  0  0  0  0
   -8.7680   -0.6688  -24.0546 C   0  0  0  0  0  0  0  0  0  0  0  0
   -9.1208   -1.4673  -22.7606 C   0  0  2  0  0  0  0  0  0  0  0  0
   -8.6203   -0.6686  -21.5367 C   0  0  0  0  0  0  0  0  0  0  0  0
   -9.1332    0.3163  -21.0508 O   0  0  0  0  0  0  0  0  0  0  0  0
   -7.4585   -1.2432  -21.0794 N   0  0  0  0  0  0  0  0  0  0  0  0
   -6.6605   -0.6870  -20.0666 C   0  0  0  0  0  0  0  0  0  0  0  0
   -6.9313   -0.9773  -18.7583 C   0  0  0  0  0  0  0  0  0  0  0  0
   -6.1821   -0.5403  -17.7215 N   0  0  0  0  0  0  0  0  0  0  0  0
   -5.1432    0.2133  -17.9996 C   0  0  0  0  0  0  0  0  0  0  0  0
   -4.7443    0.5710  -19.3212 C   0  0  0  0  0  0  0  0  0  0  0  0
   -3.6181    1.3976  -19.5864 C   0  0  0  0  0  0  0  0  0  0  0  0
   -3.2875    1.7310  -20.8738 C   0  0  0  0  0  0  0  0  0  0  0  0
   -4.0579    1.2525  -21.9603 C   0  0  0  0  0  0  0  0  0  0  0  0
   -5.1445    0.4446  -21.7300 C   0  0  0  0  0  0  0  0  0  0  0  0
   -5.5186    0.0952  -20.4006 C   0  0  0  0  0  0  0  0  0  0  0  0
   -5.7449    0.1027  -22.5679 H   0  0  0  0  0  0  0  0  0  0  0  0
   -3.7989    1.5286  -22.9798 H   0  0  0  0  0  0  0  0  0  0  0  0
   -2.4356    2.3753  -21.0734 H   0  0  0  0  0  0  0  0  0  0  0  0
   -3.0520    1.7820  -18.7420 H   0  0  0  0  0  0  0  0  0  0  0  0
   -4.5545    0.5819  -17.1581 H   0  0  0  0  0  0  0  0  0  0  0  0
   -7.7848   -1.6075  -18.5138 H   0  0  0  0  0  0  0  0  0  0  0  0
   -7.0037   -2.3770  -21.8296 C   0  0  0  0  0  0  0  0  0  0  0  0
   -8.2583   -2.7676  -22.6158 C   0  0  2  0  0  0  0  0  0  0  0  0
   -7.8832   -3.4843  -23.8948 C   0  0  0  0  0  0  0  0  0  0  0  0
   -9.0640   -4.0219  -24.5230 N   0  0  0  0  0  0  0  0  0  0  0  0
   -8.9257   -4.5265  -25.8089 C   0  0  0  0  0  0  0  0  0  0  0  0
   -7.7218   -4.7696  -26.5182 C   0  0  0  0  0  0  0  0  0  0  0  0
   -7.9594   -5.3104  -27.7087 N   0  0  0  0  0  0  0  0  0  0  0  0
   -9.2813   -5.4405  -27.7592 N   0  0  0  0  0  0  0  0  0  0  0  0
   -9.9451   -5.9695  -28.9131 C   0  0  0  0  0  0  0  0  0  0  0  0
  -10.6941   -5.2436  -29.2325 H   0  0  0  0  0  0  0  0  0  0  0  0
  -10.4364   -6.9191  -28.6793 H   0  0  0  0  0  0  0  0  0  0  0  0
   -9.1967   -6.1158  -29.6880 H   0  0  0  0  0  0  0  0  0  0  0  0
   -9.9162   -4.9828  -26.6554 C   0  0  0  0  0  0  0  0  0  0  0  0
  -10.9934   -5.0741  -26.5770 H   0  0  0  0  0  0  0  0  0  0  0  0
   -6.7026   -4.5980  -26.1859 H   0  0  0  0  0  0  0  0  0  0  0  0
   -9.9200   -3.4983  -24.3707 H   0  0  0  0  0  0  0  0  0  0  0  0
   -7.3136   -2.7951  -24.5501 H   0  0  0  0  0  0  0  0  0  0  0  0
   -7.1918   -4.3130  -23.6902 H   0  0  0  0  0  0  0  0  0  0  0  0
   -8.8264   -3.4709  -21.9989 H   0  0  0  0  0  0  0  0  0  0  0  0
   -6.1526   -2.1243  -22.4860 H   0  0  0  0  0  0  0  0  0  0  0  0
   -6.6606   -3.1727  -21.1583 H   0  0  0  0  0  0  0  0  0  0  0  0
  -10.6353   -1.6431  -22.6976 C   0  0  0  0  0  0  0  0  0  0  0  0
  -11.2354   -2.6223  -21.8891 C   0  0  0  0  0  0  0  0  0  0  0  0
  -12.6145   -2.6591  -21.7517 C   0  0  0  0  0  0  0  0  0  0  0  0
  -13.3505   -3.7673  -20.6375 Cl  0  0  0  0  0  0  0  0  0  0  0  0
  -13.4479   -1.7846  -22.4436 C   0  0  0  0  0  0  0  0  0  0  0  0
  -12.8665   -0.8162  -23.2319 C   0  0  0  0  0  0  0  0  0  0  0  0
  -11.4796   -0.7101  -23.3253 C   0  0  0  0  0  0  0  0  0  0  0  0
  -10.9395    0.4937  -24.0448 C   0  0  0  0  0  0  0  0  0  0  0  0
  -11.6715    1.4075  -24.4102 O   0  0  0  0  0  0  0  0  0  0  0  0
  -13.4699   -0.1019  -23.7782 H   0  0  0  0  0  0  0  0  0  0  0  0
  -14.5250   -1.8492  -22.3358 H   0  0  0  0  0  0  0  0  0  0  0  0
  -10.6488   -3.3447  -21.3301 H   0  0  0  0  0  0  0  0  0  0  0  0
   -7.7287   -0.3347  -23.9997 H   0  0  0  0  0  0  0  0  0  0  0  0
   -8.8714   -1.3076  -24.9422 H   0  0  0  0  0  0  0  0  0  0  0  0
   -9.7697    2.4396  -24.9397 H   0  0  0  0  0  0  0  0  0  0  0  0
   -8.5469    1.4909  -25.8128 H   0  0  0  0  0  0  0  0  0  0  0  0
   -9.2087    2.7885  -22.4874 H   0  0  0  0  0  0  0  0  0  0  0  0
   -6.6114    4.1457  -22.4505 H   0  0  0  0  0  0  0  0  0  0  0  0
   -7.7996    4.0478  -21.1193 H   0  0  0  0  0  0  0  0  0  0  0  0
   -6.6636    2.7080  -21.4269 H   0  0  0  0  0  0  0  0  0  0  0  0
  1  2  1  0
  2  3  1  0
  3  4  2  0
  3  5  1  0
  5  6  1  0
  6  7  1  0
  8  7  1  6
  8  9  1  0
  9 10  2  0
  9 11  1  0
 11 12  1  0
 12 13  2  0
 13 14  1  0
 14 15  2  0
 15 16  1  0
 16 17  2  0
 17 18  1  0
 18 19  2  0
 19 20  1  0
 20 21  2  0
 20 22  1  0
 19 23  1  0
 18 24  1  0
 17 25  1  0
 15 26  1  0
 13 27  1  0
 11 28  1  0
 28 29  1  0
 29 30  1  0
 30 31  1  0
 31 32  1  0
 32 33  1  0
 33 34  2  0
 34 35  1  0
 35 36  1  0
 36 37  1  0
 36 38  1  0
 36 39  1  0
 35 40  1  0
 40 41  1  0
 33 42  1  0
 31 43  1  0
 30 44  1  0
 30 45  1  0
 29 46  1  1
 28 47  1  0
 28 48  1  0
  8 49  1  0
 49 50  2  0
 50 51  1  0
 51 52  1  0
 51 53  2  0
 53 54  1  0
 54 55  2  0
 55 56  1  0
 56 57  2  0
 54 58  1  0
 53 59  1  0
 50 60  1  0
  7 61  1  0
  7 62  1  0
  5 63  1  0
  5 64  1  0
  2 65  1  0
  1 66  1  0
  1 67  1  0
  1 68  1  0
 56  6  1  0
 29  8  1  0
 40 32  2  0
 55 49  1  0
 21 12  1  0
 21 16  1  0
M  END
>  <cnnaffinities>  (2) 
[6.20764]

>  <score>  (2) 
6.20764

>  <index>  (2) 
1

>  <Smiles>  (2) 
C(N(C(=O)C(N1C([C@@]2(C(=O)N(c3c(nc(c4c(c(c(c(c34)[H])[H])[H])[H])[H])[H])C([C@@]2(C(N(c2c(nn(C([H])([H])[H])c2[H])[H])[H])([H])[H])[H])([H])[H])c2c(c(Cl)c(c(c2C1=O)[H])[H])[H])([H])[H])([H])[H])[H])([H])([H])[H]

>  <h>  (2) 
<NA>

>  <Training>  (2) 
True

>  <Success>  (2) 
True

>  <enamine_searched>  (2) 
False

>  <enamine_id>  (2) 
nan

$$$$

     RDKit          3D

 60 65  0  0  0  0  0  0  0  0999 V2000
   -6.0737   -7.6195  -26.6124 C   0  0  0  0  0  0  0  0  0  0  0  0
   -6.5108   -6.1841  -26.7018 C   0  0  0  0  0  0  0  0  0  0  0  0
   -5.6614   -5.1325  -26.3680 C   0  0  0  0  0  0  0  0  0  0  0  0
   -6.0363   -3.8542  -26.4031 N   0  0  0  0  0  0  0  0  0  0  0  0
   -7.2936   -3.6064  -26.7779 C   0  0  0  0  0  0  0  0  0  0  0  0
   -7.7607   -2.1733  -26.8034 C   0  0  0  0  0  0  0  0  0  0  0  0
   -8.6225   -1.8235  -25.6811 N   0  0  0  0  0  0  0  0  0  0  0  0
   -7.9822   -1.2740  -24.4927 C   0  0  0  0  0  0  0  0  0  0  0  0
   -8.7515   -1.5416  -23.1811 C   0  0  2  0  0  0  0  0  0  0  0  0
   -8.1401   -0.6131  -22.1046 C   0  0  0  0  0  0  0  0  0  0  0  0
   -8.2271    0.5952  -22.0435 O   0  0  0  0  0  0  0  0  0  0  0  0
   -7.4227   -1.3753  -21.2081 N   0  0  0  0  0  0  0  0  0  0  0  0
   -6.6179   -0.8017  -20.1870 C   0  0  0  0  0  0  0  0  0  0  0  0
   -6.8999   -1.0587  -18.8707 C   0  0  0  0  0  0  0  0  0  0  0  0
   -6.1993   -0.5665  -17.8188 N   0  0  0  0  0  0  0  0  0  0  0  0
   -5.1718    0.2033  -18.0839 C   0  0  0  0  0  0  0  0  0  0  0  0
   -4.7404    0.5285  -19.3987 C   0  0  0  0  0  0  0  0  0  0  0  0
   -3.6067    1.3569  -19.6286 C   0  0  0  0  0  0  0  0  0  0  0  0
   -3.2104    1.6469  -20.9028 C   0  0  0  0  0  0  0  0  0  0  0  0
   -3.9323    1.1208  -21.9996 C   0  0  0  0  0  0  0  0  0  0  0  0
   -5.0094    0.3001  -21.8031 C   0  0  0  0  0  0  0  0  0  0  0  0
   -5.4713    0.0063  -20.4915 C   0  0  0  0  0  0  0  0  0  0  0  0
   -5.5144   -0.1373  -22.6581 H   0  0  0  0  0  0  0  0  0  0  0  0
   -3.5942    1.3311  -23.0094 H   0  0  0  0  0  0  0  0  0  0  0  0
   -2.3347    2.2629  -21.0880 H   0  0  0  0  0  0  0  0  0  0  0  0
   -3.0750    1.7588  -18.7686 H   0  0  0  0  0  0  0  0  0  0  0  0
   -4.6278    0.6126  -17.2321 H   0  0  0  0  0  0  0  0  0  0  0  0
   -7.7477   -1.6890  -18.6073 H   0  0  0  0  0  0  0  0  0  0  0  0
   -7.4074   -2.7929  -21.5187 C   0  0  0  0  0  0  0  0  0  0  0  0
   -8.5365   -2.9638  -22.5495 C   0  0  2  0  0  0  0  0  0  0  0  0
   -8.2934   -4.1153  -23.5247 C   0  0  0  0  0  0  0  0  0  0  0  0
   -9.0847   -4.1619  -24.2809 H   0  0  0  0  0  0  0  0  0  0  0  0
   -8.2677   -5.0721  -22.9921 H   0  0  0  0  0  0  0  0  0  0  0  0
   -7.3402   -4.0023  -24.0538 H   0  0  0  0  0  0  0  0  0  0  0  0
   -9.4642   -3.1608  -21.9921 H   0  0  0  0  0  0  0  0  0  0  0  0
   -6.4341   -3.1028  -21.9297 H   0  0  0  0  0  0  0  0  0  0  0  0
   -7.5751   -3.3742  -20.6091 H   0  0  0  0  0  0  0  0  0  0  0  0
  -10.2224   -1.2569  -23.4293 C   0  0  0  0  0  0  0  0  0  0  0  0
  -11.0476   -0.9384  -22.3439 C   0  0  0  0  0  0  0  0  0  0  0  0
  -12.3984   -0.7412  -22.5663 C   0  0  0  0  0  0  0  0  0  0  0  0
  -13.2415   -0.4049  -21.5796 F   0  0  0  0  0  0  0  0  0  0  0  0
  -12.9694   -0.8934  -23.8199 C   0  0  0  0  0  0  0  0  0  0  0  0
  -12.1658   -1.2475  -24.8825 C   0  0  0  0  0  0  0  0  0  0  0  0
  -10.7944   -1.4212  -24.6971 C   0  0  0  0  0  0  0  0  0  0  0  0
   -9.9745   -1.8385  -25.8734 C   0  0  0  0  0  0  0  0  0  0  0  0
  -10.4823   -2.1859  -26.9326 O   0  0  0  0  0  0  0  0  0  0  0  0
  -12.5745   -1.4067  -25.8740 H   0  0  0  0  0  0  0  0  0  0  0  0
  -14.0372   -0.7314  -23.8970 H   0  0  0  0  0  0  0  0  0  0  0  0
  -10.6060   -0.8503  -21.3583 H   0  0  0  0  0  0  0  0  0  0  0  0
   -6.9858   -1.7314  -24.4485 H   0  0  0  0  0  0  0  0  0  0  0  0
   -7.8784   -0.1804  -24.5739 H   0  0  0  0  0  0  0  0  0  0  0  0
   -8.3310   -1.9827  -27.7170 H   0  0  0  0  0  0  0  0  0  0  0  0
   -6.8691   -1.5423  -26.7707 H   0  0  0  0  0  0  0  0  0  0  0  0
   -8.1340   -4.6510  -27.1399 C   0  0  0  0  0  0  0  0  0  0  0  0
   -7.7565   -5.9296  -27.1053 N   0  0  0  0  0  0  0  0  0  0  0  0
   -9.1436   -4.4363  -27.4786 H   0  0  0  0  0  0  0  0  0  0  0  0
   -4.6461   -5.3489  -26.0440 H   0  0  0  0  0  0  0  0  0  0  0  0
   -5.1311   -7.7834  -27.1492 H   0  0  0  0  0  0  0  0  0  0  0  0
   -5.9161   -7.9156  -25.5670 H   0  0  0  0  0  0  0  0  0  0  0  0
   -6.8602   -8.2325  -27.0497 H   0  0  0  0  0  0  0  0  0  0  0  0
  1  2  1  0
  2  3  2  0
  3  4  1  0
  4  5  2  0
  5  6  1  0
  6  7  1  0
  7  8  1  0
  9  8  1  6
  9 10  1  0
 10 11  2  0
 10 12  1  0
 12 13  1  0
 13 14  2  0
 14 15  1  0
 15 16  2  0
 16 17  1  0
 17 18  2  0
 18 19  1  0
 19 20  2  0
 20 21  1  0
 21 22  2  0
 21 23  1  0
 20 24  1  0
 19 25  1  0
 18 26  1  0
 16 27  1  0
 14 28  1  0
 12 29  1  0
 29 30  1  0
 30 31  1  0
 31 32  1  0
 31 33  1  0
 31 34  1  0
 30 35  1  1
 29 36  1  0
 29 37  1  0
  9 38  1  0
 38 39  2  0
 39 40  1  0
 40 41  1  0
 40 42  2  0
 42 43  1  0
 43 44  2  0
 44 45  1  0
 45 46  2  0
 43 47  1  0
 42 48  1  0
 39 49  1  0
  8 50  1  0
  8 51  1  0
  6 52  1  0
  6 53  1  0
  5 54  1  0
 54 55  2  0
 54 56  1  0
  3 57  1  0
  1 58  1  0
  1 59  1  0
  1 60  1  0
 55  2  1  0
 45  7  1  0
 30  9  1  0
 44 38  1  0
 22 13  1  0
 22 17  1  0
M  END
>  <cnnaffinities>  (3) 
[6.11487]

>  <score>  (3) 
6.11487

>  <index>  (3) 
2

>  <Smiles>  (3) 
C(c1c(nc(C(N2C([C@@]3(C(=O)N(c4c(nc(c5c(c(c(c(c45)[H])[H])[H])[H])[H])[H])C([C@@]3(C([H])([H])[H])[H])([H])[H])c3c(c(F)c(c(c3C2=O)[H])[H])[H])([H])[H])([H])[H])c(n1)[H])[H])([H])([H])[H]

>  <h>  (3) 
<NA>

>  <Training>  (3) 
True

>  <Success>  (3) 
True

>  <enamine_searched>  (3) 
False

>  <enamine_id>  (3) 
nan

$$$$

     RDKit          3D

 66 70  0  0  0  0  0  0  0  0999 V2000
   -7.3981    3.3721  -21.7905 C   0  0  0  0  0  0  0  0  0  0  0  0
   -8.3411    2.9371  -22.8037 N   0  0  0  0  0  0  0  0  0  0  0  0
   -7.8212    2.2340  -23.8472 C   0  0  0  0  0  0  0  0  0  0  0  0
   -6.6120    2.0731  -23.9760 O   0  0  0  0  0  0  0  0  0  0  0  0
   -8.8097    1.6481  -24.8484 C   0  0  0  0  0  0  0  0  0  0  0  0
   -9.4592    0.4690  -24.3171 N   0  0  0  0  0  0  0  0  0  0  0  0
   -8.6951   -0.7551  -24.1575 C   0  0  0  0  0  0  0  0  0  0  0  0
   -9.0645   -1.5151  -22.8628 C   0  0  2  0  0  0  0  0  0  0  0  0
   -8.5475   -0.7486  -21.6258 C   0  0  0  0  0  0  0  0  0  0  0  0
   -9.0248    0.2413  -21.1150 O   0  0  0  0  0  0  0  0  0  0  0  0
   -7.4097   -1.3804  -21.1790 N   0  0  0  0  0  0  0  0  0  0  0  0
   -6.6112   -0.8057  -20.1650 C   0  0  0  0  0  0  0  0  0  0  0  0
   -6.9226   -1.0470  -18.8538 C   0  0  0  0  0  0  0  0  0  0  0  0
   -6.2181   -0.5659  -17.8026 N   0  0  0  0  0  0  0  0  0  0  0  0
   -5.1859    0.1983  -18.0687 C   0  0  0  0  0  0  0  0  0  0  0  0
   -4.7552    0.5302  -19.3847 C   0  0  0  0  0  0  0  0  0  0  0  0
   -3.6331    1.3653  -19.6270 C   0  0  0  0  0  0  0  0  0  0  0  0
   -3.2644    1.6847  -20.9040 C   0  0  0  0  0  0  0  0  0  0  0  0
   -4.0047    1.1935  -22.0036 C   0  0  0  0  0  0  0  0  0  0  0  0
   -5.0791    0.3618  -21.7997 C   0  0  0  0  0  0  0  0  0  0  0  0
   -5.4844    0.0102  -20.4823 C   0  0  0  0  0  0  0  0  0  0  0  0
   -5.6364   -0.0022  -22.6584 H   0  0  0  0  0  0  0  0  0  0  0  0
   -3.7085    1.4537  -23.0151 H   0  0  0  0  0  0  0  0  0  0  0  0
   -2.3997    2.3162  -21.0861 H   0  0  0  0  0  0  0  0  0  0  0  0
   -3.0873    1.7546  -18.7718 H   0  0  0  0  0  0  0  0  0  0  0  0
   -4.6178    0.5886  -17.2222 H   0  0  0  0  0  0  0  0  0  0  0  0
   -7.7887   -1.6604  -18.6163 H   0  0  0  0  0  0  0  0  0  0  0  0
   -7.0362   -2.5522  -21.9374 C   0  0  0  0  0  0  0  0  0  0  0  0
   -8.2956   -2.8649  -22.7519 C   0  0  2  0  0  0  0  0  0  0  0  0
   -7.9549   -3.6016  -24.0489 C   0  0  0  0  0  0  0  0  0  0  0  0
   -9.1042   -3.9737  -24.7703 O   0  0  0  0  0  0  0  0  0  0  0  0
   -9.6084   -5.2822  -24.5023 C   0  0  0  0  0  0  0  0  0  0  0  0
  -11.0956   -5.2037  -24.7702 C   0  0  0  0  0  0  0  0  0  0  0  0
  -11.6386   -6.0919  -24.4520 H   0  0  0  0  0  0  0  0  0  0  0  0
  -11.5307   -4.3236  -24.2876 H   0  0  0  0  0  0  0  0  0  0  0  0
  -11.2102   -5.1585  -25.8581 H   0  0  0  0  0  0  0  0  0  0  0  0
   -8.9873   -6.2967  -25.4606 C   0  0  0  0  0  0  0  0  0  0  0  0
   -9.4489   -7.2810  -25.3204 H   0  0  0  0  0  0  0  0  0  0  0  0
   -7.9049   -6.4147  -25.3481 H   0  0  0  0  0  0  0  0  0  0  0  0
   -9.1935   -5.9570  -26.4825 H   0  0  0  0  0  0  0  0  0  0  0  0
   -9.3995   -5.5557  -23.4542 H   0  0  0  0  0  0  0  0  0  0  0  0
   -7.3358   -4.4859  -23.8241 H   0  0  0  0  0  0  0  0  0  0  0  0
   -7.3688   -2.9516  -24.7122 H   0  0  0  0  0  0  0  0  0  0  0  0
   -8.9288   -3.5299  -22.1606 H   0  0  0  0  0  0  0  0  0  0  0  0
   -6.1729   -2.3580  -22.5937 H   0  0  0  0  0  0  0  0  0  0  0  0
   -6.7613   -3.3715  -21.2665 H   0  0  0  0  0  0  0  0  0  0  0  0
  -10.5730   -1.6195  -22.8106 C   0  0  0  0  0  0  0  0  0  0  0  0
  -11.1939   -2.5418  -21.9659 C   0  0  0  0  0  0  0  0  0  0  0  0
  -12.5732   -2.5679  -21.8684 C   0  0  0  0  0  0  0  0  0  0  0  0
  -13.3179   -3.6536  -20.7355 Cl  0  0  0  0  0  0  0  0  0  0  0  0
  -13.3922   -1.7207  -22.6162 C   0  0  0  0  0  0  0  0  0  0  0  0
  -12.7807   -0.7767  -23.4110 C   0  0  0  0  0  0  0  0  0  0  0  0
  -11.3928   -0.6941  -23.4708 C   0  0  0  0  0  0  0  0  0  0  0  0
  -10.8151    0.4900  -24.1715 C   0  0  0  0  0  0  0  0  0  0  0  0
  -11.5019    1.4277  -24.5510 O   0  0  0  0  0  0  0  0  0  0  0  0
  -13.3543   -0.0499  -23.9718 H   0  0  0  0  0  0  0  0  0  0  0  0
  -14.4721   -1.7824  -22.5232 H   0  0  0  0  0  0  0  0  0  0  0  0
  -10.6075   -3.2065  -21.3407 H   0  0  0  0  0  0  0  0  0  0  0  0
   -8.8865   -1.4238  -25.0035 H   0  0  0  0  0  0  0  0  0  0  0  0
   -7.6317   -0.5028  -24.1603 H   0  0  0  0  0  0  0  0  0  0  0  0
   -9.6036    2.3543  -25.1160 H   0  0  0  0  0  0  0  0  0  0  0  0
   -8.2239    1.3950  -25.7347 H   0  0  0  0  0  0  0  0  0  0  0  0
   -9.2935    2.7904  -22.4962 H   0  0  0  0  0  0  0  0  0  0  0  0
   -6.7706    2.5321  -21.4740 H   0  0  0  0  0  0  0  0  0  0  0  0
   -6.7449    4.1514  -22.1821 H   0  0  0  0  0  0  0  0  0  0  0  0
   -7.9283    3.7853  -20.9356 H   0  0  0  0  0  0  0  0  0  0  0  0
  1  2  1  0
  2  3  1  0
  3  4  2  0
  3  5  1  0
  5  6  1  0
  6  7  1  0
  8  7  1  6
  8  9  1  0
  9 10  2  0
  9 11  1  0
 11 12  1  0
 12 13  2  0
 13 14  1  0
 14 15  2  0
 15 16  1  0
 16 17  2  0
 17 18  1  0
 18 19  2  0
 19 20  1  0
 20 21  2  0
 20 22  1  0
 19 23  1  0
 18 24  1  0
 17 25  1  0
 15 26  1  0
 13 27  1  0
 11 28  1  0
 28 29  1  0
 29 30  1  0
 30 31  1  0
 31 32  1  0
 32 33  1  0
 33 34  1  0
 33 35  1  0
 33 36  1  0
 32 37  1  0
 37 38  1  0
 37 39  1  0
 37 40  1  0
 32 41  1  0
 30 42  1  0
 30 43  1  0
 29 44  1  1
 28 45  1  0
 28 46  1  0
  8 47  1  0
 47 48  2  0
 48 49  1  0
 49 50  1  0
 49 51  2  0
 51 52  1  0
 52 53  2  0
 53 54  1  0
 54 55  2  0
 52 56  1  0
 51 57  1  0
 48 58  1  0
  7 59  1  0
  7 60  1  0
  5 61  1  0
  5 62  1  0
  2 63  1  0
  1 64  1  0
  1 65  1  0
  1 66  1  0
 54  6  1  0
 29  8  1  0
 53 47  1  0
 21 12  1  0
 21 16  1  0
M  END
>  <cnnaffinities>  (4) 
[6.06477, 6.43274, 6.08, 6.28475, 5.94365, 6.27732, 5.79511, 6.11807]

>  <score>  (4) 
6.06477

>  <index>  (4) 
3

>  <Smiles>  (4) 
C(N(C(=O)C(N1C([C@@]2(C(=O)N(c3c(nc(c4c(c(c(c(c34)[H])[H])[H])[H])[H])[H])C([C@@]2(C(OC(C([H])([H])[H])(C([H])([H])[H])[H])([H])[H])[H])([H])[H])c2c(c(Cl)c(c(c2C1=O)[H])[H])[H])([H])[H])([H])[H])[H])([H])([H])[H]

>  <h>  (4) 
<NA>

>  <Training>  (4) 
True

>  <Success>  (4) 
True

>  <enamine_searched>  (4) 
False

>  <enamine_id>  (4) 
nan

$$$$

     RDKit          3D

 59 64  0  0  0  0  0  0  0  0999 V2000
   -8.2669   -4.1086  -23.5383 C   0  0  0  0  0  0  0  0  0  0  0  0
   -8.5203   -2.9649  -22.5584 C   0  0  1  0  0  0  0  0  0  0  0  0
   -7.3911   -2.7920  -21.5287 C   0  0  0  0  0  0  0  0  0  0  0  0
   -7.4208   -1.3775  -21.2072 N   0  0  0  0  0  0  0  0  0  0  0  0
   -6.6156   -0.8025  -20.1862 C   0  0  0  0  0  0  0  0  0  0  0  0
   -6.8981   -1.0578  -18.8691 C   0  0  0  0  0  0  0  0  0  0  0  0
   -6.1979   -0.5648  -17.8176 N   0  0  0  0  0  0  0  0  0  0  0  0
   -5.1699    0.2051  -18.0824 C   0  0  0  0  0  0  0  0  0  0  0  0
   -4.7383    0.5292  -19.3973 C   0  0  0  0  0  0  0  0  0  0  0  0
   -3.6047    1.3570  -19.6284 C   0  0  0  0  0  0  0  0  0  0  0  0
   -3.2095    1.6457  -20.9041 C   0  0  0  0  0  0  0  0  0  0  0  0
   -3.9313    1.1191  -21.9997 C   0  0  0  0  0  0  0  0  0  0  0  0
   -5.0092    0.2983  -21.8019 C   0  0  0  0  0  0  0  0  0  0  0  0
   -5.4691    0.0054  -20.4899 C   0  0  0  0  0  0  0  0  0  0  0  0
   -5.5158   -0.1384  -22.6562 H   0  0  0  0  0  0  0  0  0  0  0  0
   -3.5929    1.3273  -23.0098 H   0  0  0  0  0  0  0  0  0  0  0  0
   -2.3344    2.2620  -21.0902 H   0  0  0  0  0  0  0  0  0  0  0  0
   -3.0718    1.7608  -18.7705 H   0  0  0  0  0  0  0  0  0  0  0  0
   -4.6252    0.6140  -17.2308 H   0  0  0  0  0  0  0  0  0  0  0  0
   -7.7464   -1.6876  -18.6066 H   0  0  0  0  0  0  0  0  0  0  0  0
   -8.1427   -0.6176  -22.1029 C   0  0  0  0  0  0  0  0  0  0  0  0
   -8.2429    0.5924  -22.0349 O   0  0  0  0  0  0  0  0  0  0  0  0
   -8.7451   -1.5420  -23.1864 C   0  0  1  0  0  0  0  0  0  0  0  0
   -7.9767   -1.2637  -24.5006 C   0  0  0  0  0  0  0  0  0  0  0  0
   -8.6114   -1.8220  -25.6948 N   0  0  0  0  0  0  0  0  0  0  0  0
   -7.7379   -2.0653  -26.8393 C   0  0  0  0  0  0  0  0  0  0  0  0
   -6.9415   -3.3379  -26.7137 C   0  0  0  0  0  0  0  0  0  0  0  0
   -5.7069   -3.3982  -26.2575 N   0  0  0  0  0  0  0  0  0  0  0  0
   -5.3747   -4.7307  -26.2691 C   0  0  0  0  0  0  0  0  0  0  0  0
   -6.4304   -5.4767  -26.7170 C   0  0  0  0  0  0  0  0  0  0  0  0
   -7.4331   -4.5741  -27.0165 N   0  0  0  0  0  0  0  0  0  0  0  0
   -8.7734   -4.8938  -27.4758 C   0  0  0  0  0  0  0  0  0  0  0  0
   -9.0381   -4.2894  -28.3502 H   0  0  0  0  0  0  0  0  0  0  0  0
   -9.5192   -4.7208  -26.6912 H   0  0  0  0  0  0  0  0  0  0  0  0
   -8.7846   -5.9507  -27.7523 H   0  0  0  0  0  0  0  0  0  0  0  0
   -6.5847   -6.5398  -26.8251 H   0  0  0  0  0  0  0  0  0  0  0  0
   -4.3966   -5.0585  -25.9394 H   0  0  0  0  0  0  0  0  0  0  0  0
   -8.3704   -2.0530  -27.7300 H   0  0  0  0  0  0  0  0  0  0  0  0
   -7.0148   -1.2452  -26.9099 H   0  0  0  0  0  0  0  0  0  0  0  0
   -9.9672   -1.8064  -25.8843 C   0  0  0  0  0  0  0  0  0  0  0  0
  -10.4963   -2.1133  -26.9483 O   0  0  0  0  0  0  0  0  0  0  0  0
  -10.7891   -1.4191  -24.6988 C   0  0  0  0  0  0  0  0  0  0  0  0
  -12.1626   -1.2573  -24.8858 C   0  0  0  0  0  0  0  0  0  0  0  0
  -12.9739   -0.9246  -23.8224 C   0  0  0  0  0  0  0  0  0  0  0  0
  -12.4048   -0.7795  -22.5672 C   0  0  0  0  0  0  0  0  0  0  0  0
  -13.2508   -0.4573  -21.5784 F   0  0  0  0  0  0  0  0  0  0  0  0
  -11.0523   -0.9665  -22.3430 C   0  0  0  0  0  0  0  0  0  0  0  0
  -10.2200   -1.2670  -23.4290 C   0  0  0  0  0  0  0  0  0  0  0  0
  -10.6200   -0.8824  -21.3528 H   0  0  0  0  0  0  0  0  0  0  0  0
  -14.0431   -0.7721  -23.9049 H   0  0  0  0  0  0  0  0  0  0  0  0
  -12.5685   -1.4058  -25.8797 H   0  0  0  0  0  0  0  0  0  0  0  0
   -6.9713   -1.6980  -24.4575 H   0  0  0  0  0  0  0  0  0  0  0  0
   -7.8829   -0.1693  -24.5843 H   0  0  0  0  0  0  0  0  0  0  0  0
   -6.4159   -3.0904  -21.9459 H   0  0  0  0  0  0  0  0  0  0  0  0
   -7.5525   -3.3854  -20.6254 H   0  0  0  0  0  0  0  0  0  0  0  0
   -9.4458   -3.1724  -22.0009 H   0  0  0  0  0  0  0  0  0  0  0  0
   -7.3126   -3.9737  -24.0594 H   0  0  0  0  0  0  0  0  0  0  0  0
   -8.2310   -5.0693  -23.0128 H   0  0  0  0  0  0  0  0  0  0  0  0
   -9.0618   -4.1605  -24.2885 H   0  0  0  0  0  0  0  0  0  0  0  0
  1  2  1  0
  2  3  1  0
  3  4  1  0
  4  5  1  0
  5  6  2  0
  6  7  1  0
  7  8  2  0
  8  9  1  0
  9 10  2  0
 10 11  1  0
 11 12  2  0
 12 13  1  0
 13 14  2  0
 13 15  1  0
 12 16  1  0
 11 17  1  0
 10 18  1  0
  8 19  1  0
  6 20  1  0
  4 21  1  0
 21 22  2  0
 21 23  1  0
 23 24  1  6
 24 25  1  0
 25 26  1  0
 26 27  1  0
 27 28  2  0
 28 29  1  0
 29 30  2  0
 30 31  1  0
 31 32  1  0
 32 33  1  0
 32 34  1  0
 32 35  1  0
 30 36  1  0
 29 37  1  0
 26 38  1  0
 26 39  1  0
 25 40  1  0
 40 41  2  0
 40 42  1  0
 42 43  2  0
 43 44  1  0
 44 45  2  0
 45 46  1  0
 45 47  1  0
 47 48  2  0
 47 49  1  0
 44 50  1  0
 43 51  1  0
 24 52  1  0
 24 53  1  0
  3 54  1  0
  3 55  1  0
  2 56  1  1
  1 57  1  0
  1 58  1  0
  1 59  1  0
 23  2  1  0
 31 27  1  0
 48 42  1  0
 14  5  1  0
 48 23  1  0
 14  9  1  0
M  END
>  <cnnaffinities>  (5) 
[6.06788, 6.18006]

>  <score>  (5) 
6.06788

>  <index>  (5) 
4

>  <Smiles>  (5) 
C([C@]1(C(N(c2c(nc(c3c(c(c(c(c23)[H])[H])[H])[H])[H])[H])C(=O)[C@]21C(N(C(c1nc(c(n1C([H])([H])[H])[H])[H])([H])[H])C(=O)c1c(c(c(F)c(c21)[H])[H])[H])([H])[H])([H])[H])[H])([H])([H])[H]

>  <h>  (5) 
<NA>

>  <Training>  (5) 
True

>  <Success>  (5) 
True

>  <enamine_searched>  (5) 
False

>  <enamine_id>  (5) 
nan

$$$$

     RDKit          3D

 58 61  0  0  0  0  0  0  0  0999 V2000
   -8.1015   -4.6467  -21.8001 C   0  0  0  0  0  0  0  0  0  0  0  0
   -7.0838   -3.8363  -21.5098 C   0  0  0  0  0  0  0  0  0  0  0  0
   -6.7655   -2.4758  -22.0464 C   0  0  0  0  0  0  0  0  0  0  0  0
   -7.3683   -1.3995  -21.2526 N   0  0  0  0  0  0  0  0  0  0  0  0
   -8.6007   -0.7987  -21.4671 C   0  0  0  0  0  0  0  0  0  0  0  0
   -9.0397    0.0041  -20.6671 O   0  0  0  0  0  0  0  0  0  0  0  0
   -9.3277   -1.0978  -22.7774 C   0  0  2  0  0  0  0  0  0  0  0  0
   -8.7273   -0.2315  -23.8987 C   0  0  0  0  0  0  0  0  0  0  0  0
   -9.0682    1.1694  -23.6619 N   0  0  0  0  0  0  0  0  0  0  0  0
   -8.0266    2.1817  -23.7163 C   0  0  0  0  0  0  0  0  0  0  0  0
   -7.5191    2.3300  -25.1491 C   0  0  0  0  0  0  0  0  0  0  0  0
   -6.4820    1.8079  -25.5360 O   0  0  0  0  0  0  0  0  0  0  0  0
   -8.3359    3.0285  -25.9754 N   0  0  0  0  0  0  0  0  0  0  0  0
   -7.9618    3.2029  -27.3644 C   0  0  0  0  0  0  0  0  0  0  0  0
   -7.0108    3.7380  -27.4306 H   0  0  0  0  0  0  0  0  0  0  0  0
   -7.8386    2.2377  -27.8646 H   0  0  0  0  0  0  0  0  0  0  0  0
   -8.7297    3.7782  -27.8841 H   0  0  0  0  0  0  0  0  0  0  0  0
   -9.2509    3.3050  -25.6577 H   0  0  0  0  0  0  0  0  0  0  0  0
   -7.2017    1.8941  -23.0519 H   0  0  0  0  0  0  0  0  0  0  0  0
   -8.4427    3.1293  -23.3585 H   0  0  0  0  0  0  0  0  0  0  0  0
  -10.3664    1.5634  -23.4810 C   0  0  0  0  0  0  0  0  0  0  0  0
  -10.7470    2.7042  -23.7101 O   0  0  0  0  0  0  0  0  0  0  0  0
  -11.2846    0.4929  -22.9750 C   0  0  0  0  0  0  0  0  0  0  0  0
  -12.6397    0.7941  -22.8308 C   0  0  0  0  0  0  0  0  0  0  0  0
  -13.5352   -0.1785  -22.4258 C   0  0  0  0  0  0  0  0  0  0  0  0
  -13.0529   -1.4517  -22.1238 C   0  0  0  0  0  0  0  0  0  0  0  0
  -14.1709   -2.6778  -21.5977 Cl  0  0  0  0  0  0  0  0  0  0  0  0
  -11.7006   -1.7488  -22.2292 C   0  0  0  0  0  0  0  0  0  0  0  0
  -10.7998   -0.7771  -22.6656 C   0  0  0  0  0  0  0  0  0  0  0  0
  -11.3445   -2.7432  -21.9708 H   0  0  0  0  0  0  0  0  0  0  0  0
  -14.5955    0.0432  -22.3485 H   0  0  0  0  0  0  0  0  0  0  0  0
  -12.9729    1.8048  -23.0424 H   0  0  0  0  0  0  0  0  0  0  0  0
   -9.1195   -0.5738  -24.8666 H   0  0  0  0  0  0  0  0  0  0  0  0
   -7.6369   -0.3142  -23.9520 H   0  0  0  0  0  0  0  0  0  0  0  0
   -9.2053   -2.1578  -23.0061 H   0  0  0  0  0  0  0  0  0  0  0  0
   -6.6118   -0.8534  -20.1811 C   0  0  0  0  0  0  0  0  0  0  0  0
   -6.9121   -1.1253  -18.8724 C   0  0  0  0  0  0  0  0  0  0  0  0
   -6.2104   -0.6459  -17.8156 N   0  0  0  0  0  0  0  0  0  0  0  0
   -5.1951    0.1466  -18.0683 C   0  0  0  0  0  0  0  0  0  0  0  0
   -4.7787    0.5058  -19.3802 C   0  0  0  0  0  0  0  0  0  0  0  0
   -3.6620    1.3518  -19.6148 C   0  0  0  0  0  0  0  0  0  0  0  0
   -3.2969    1.6795  -20.8909 C   0  0  0  0  0  0  0  0  0  0  0  0
   -4.0284    1.1923  -21.9958 C   0  0  0  0  0  0  0  0  0  0  0  0
   -5.1020    0.3621  -21.7958 C   0  0  0  0  0  0  0  0  0  0  0  0
   -5.5026   -0.0049  -20.4780 C   0  0  0  0  0  0  0  0  0  0  0  0
   -5.6443   -0.0198  -22.6563 H   0  0  0  0  0  0  0  0  0  0  0  0
   -3.7245    1.4556  -23.0065 H   0  0  0  0  0  0  0  0  0  0  0  0
   -2.4413    2.3242  -21.0656 H   0  0  0  0  0  0  0  0  0  0  0  0
   -3.1196    1.7348  -18.7543 H   0  0  0  0  0  0  0  0  0  0  0  0
   -4.6415    0.5474  -17.2170 H   0  0  0  0  0  0  0  0  0  0  0  0
   -7.7491   -1.7776  -18.6287 H   0  0  0  0  0  0  0  0  0  0  0  0
   -6.9868   -2.3570  -23.1208 H   0  0  0  0  0  0  0  0  0  0  0  0
   -5.6954   -2.4317  -21.8261 H   0  0  0  0  0  0  0  0  0  0  0  0
   -5.9098   -4.1926  -20.5483 C   0  0  0  0  0  0  0  0  0  0  0  0
   -5.0443   -3.2951  -20.4665 O   0  0  0  0  0  0  0  0  0  0  0  0
   -5.8751   -5.2993  -19.9896 O   0  0  0  0  0  1  0  0  0  0  0  0
   -8.8904   -4.3470  -22.4905 H   0  0  0  0  0  0  0  0  0  0  0  0
   -8.2486   -5.6404  -21.3794 H   0  0  0  0  0  0  0  0  0  0  0  0
  1  2  2  0
  2  3  1  0
  3  4  1  0
  4  5  1  0
  5  6  2  0
  5  7  1  0
  7  8  1  0
  8  9  1  0
  9 10  1  0
 10 11  1  0
 11 12  2  0
 11 13  1  0
 13 14  1  0
 14 15  1  0
 14 16  1  0
 14 17  1  0
 13 18  1  0
 10 19  1  0
 10 20  1  0
  9 21  1  0
 21 22  2  0
 21 23  1  0
 23 24  2  0
 24 25  1  0
 25 26  2  0
 26 27  1  0
 26 28  1  0
 28 29  2  0
 28 30  1  0
 25 31  1  0
 24 32  1  0
  8 33  1  0
  8 34  1  0
  7 35  1  6
  4 36  1  0
 36 37  2  0
 37 38  1  0
 38 39  2  0
 39 40  1  0
 40 41  2  0
 41 42  1  0
 42 43  2  0
 43 44  1  0
 44 45  2  0
 44 46  1  0
 43 47  1  0
 42 48  1  0
 41 49  1  0
 39 50  1  0
 37 51  1  0
  3 52  1  0
  3 53  1  0
  2 54  1  0
 54 55  2  0
 54 56  1  0
  1 57  1  0
  1 58  1  0
 29  7  1  0
 45 36  1  0
 29 23  1  0
 45 40  1  0
M  CHG  1  56  -1
M  END
>  <cnnaffinities>  (6) 
[5.87214, 5.8315, 5.7661]

>  <score>  (6) 
5.87214

>  <index>  (6) 
5

>  <Smiles>  (6) 
C(=C(C(N(C(=O)[C@@]1(C(N(C(C(=O)N(C([H])([H])[H])[H])([H])[H])C(=O)c2c(c(c(Cl)c(c12)[H])[H])[H])([H])[H])[H])c1c(nc(c2c(c(c(c(c12)[H])[H])[H])[H])[H])[H])([H])[H])C(=O)[O-])([H])[H]

>  <h>  (6) 
<NA>

>  <Training>  (6) 
True

>  <Success>  (6) 
True

>  <enamine_searched>  (6) 
False

>  <enamine_id>  (6) 
nan

$$$$

     RDKit          3D

 43 45  0  0  0  0  0  0  0  0999 V2000
   -8.2950   -5.9229  -27.5889 C   0  0  0  0  0  0  0  0  0  0  0  0
   -8.9427   -4.8585  -26.7117 C   0  0  0  0  0  0  0  0  0  0  0  0
   -7.9764   -4.1566  -25.7456 C   0  0  0  0  0  0  0  0  0  0  0  0
   -7.3678   -5.1157  -24.7221 C   0  0  0  0  0  0  0  0  0  0  0  0
   -6.5639   -4.4017  -23.6400 C   0  0  0  0  0  0  0  0  0  0  0  0
   -7.3125   -3.3156  -22.9963 N   0  0  0  0  0  0  0  0  0  0  0  0
   -6.7212   -2.7007  -21.9190 C   0  0  0  0  0  0  0  0  0  0  0  0
   -5.6582   -3.1086  -21.4766 O   0  0  0  0  0  0  0  0  0  0  0  0
   -7.4107   -1.4708  -21.2761 C   0  0  0  0  0  0  0  0  0  0  0  0
   -6.5792   -0.8341  -20.1841 C   0  0  0  0  0  0  0  0  0  0  0  0
   -6.8731   -1.0476  -18.8641 C   0  0  0  0  0  0  0  0  0  0  0  0
   -6.1873   -0.5465  -17.8011 N   0  0  0  0  0  0  0  0  0  0  0  0
   -5.1582    0.2211  -18.0650 C   0  0  0  0  0  0  0  0  0  0  0  0
   -4.7224    0.5310  -19.3801 C   0  0  0  0  0  0  0  0  0  0  0  0
   -3.5941    1.3589  -19.6195 C   0  0  0  0  0  0  0  0  0  0  0  0
   -3.2023    1.6457  -20.8977 C   0  0  0  0  0  0  0  0  0  0  0  0
   -3.9346    1.1238  -21.9871 C   0  0  0  0  0  0  0  0  0  0  0  0
   -5.0120    0.2984  -21.7843 C   0  0  0  0  0  0  0  0  0  0  0  0
   -5.4470   -0.0132  -20.4721 C   0  0  0  0  0  0  0  0  0  0  0  0
   -5.5329   -0.1241  -22.6375 H   0  0  0  0  0  0  0  0  0  0  0  0
   -3.5915    1.3261  -22.9974 H   0  0  0  0  0  0  0  0  0  0  0  0
   -2.3320    2.2700  -21.0890 H   0  0  0  0  0  0  0  0  0  0  0  0
   -3.0539    1.7738  -18.7701 H   0  0  0  0  0  0  0  0  0  0  0  0
   -4.6021    0.6281  -17.2165 H   0  0  0  0  0  0  0  0  0  0  0  0
   -7.7213   -1.6714  -18.5878 H   0  0  0  0  0  0  0  0  0  0  0  0
   -8.3712   -1.7895  -20.8452 H   0  0  0  0  0  0  0  0  0  0  0  0
   -7.6540   -0.7196  -22.0418 H   0  0  0  0  0  0  0  0  0  0  0  0
   -8.6455   -3.0528  -23.5200 C   0  0  0  0  0  0  0  0  0  0  0  0
   -8.6338   -2.9510  -25.0429 C   0  0  0  0  0  0  0  0  0  0  0  0
   -8.1117   -2.0337  -25.3273 H   0  0  0  0  0  0  0  0  0  0  0  0
   -9.6633   -2.8244  -25.3930 H   0  0  0  0  0  0  0  0  0  0  0  0
   -9.3371   -3.8466  -23.2115 H   0  0  0  0  0  0  0  0  0  0  0  0
   -9.0305   -2.1251  -23.0971 H   0  0  0  0  0  0  0  0  0  0  0  0
   -6.2446   -5.1235  -22.8825 H   0  0  0  0  0  0  0  0  0  0  0  0
   -5.6399   -4.0048  -24.0750 H   0  0  0  0  0  0  0  0  0  0  0  0
   -6.7111   -5.8305  -25.2281 H   0  0  0  0  0  0  0  0  0  0  0  0
   -8.1489   -5.7331  -24.2655 H   0  0  0  0  0  0  0  0  0  0  0  0
   -7.1502   -3.7658  -26.3523 H   0  0  0  0  0  0  0  0  0  0  0  0
   -9.4081   -4.1052  -27.3587 H   0  0  0  0  0  0  0  0  0  0  0  0
   -9.7631   -5.3052  -26.1385 H   0  0  0  0  0  0  0  0  0  0  0  0
   -7.4223   -5.5192  -28.1124 H   0  0  0  0  0  0  0  0  0  0  0  0
   -7.9592   -6.7860  -27.0069 H   0  0  0  0  0  0  0  0  0  0  0  0
   -8.9917   -6.2905  -28.3493 H   0  0  0  0  0  0  0  0  0  0  0  0
  1  2  1  0
  2  3  1  0
  3  4  1  0
  4  5  1  0
  5  6  1  0
  6  7  1  0
  7  8  2  0
  7  9  1  0
  9 10  1  0
 10 11  2  0
 11 12  1  0
 12 13  2  0
 13 14  1  0
 14 15  2  0
 15 16  1  0
 16 17  2  0
 17 18  1  0
 18 19  2  0
 18 20  1  0
 17 21  1  0
 16 22  1  0
 15 23  1  0
 13 24  1  0
 11 25  1  0
  9 26  1  0
  9 27  1  0
  6 28  1  0
 28 29  1  0
 29 30  1  0
 29 31  1  0
 28 32  1  0
 28 33  1  0
  5 34  1  0
  5 35  1  0
  4 36  1  0
  4 37  1  0
  3 38  1  0
  2 39  1  0
  2 40  1  0
  1 41  1  0
  1 42  1  0
  1 43  1  0
 29  3  1  0
 19 10  1  0
 19 14  1  0
M  END
>  <cnnaffinities>  (7) 
[4.87439, 4.19904, 4.34865, 4.34863, 4.29395, 4.78738, 4.19076, 4.22557, 4.22736]

>  <score>  (7) 
4.87439

>  <index>  (7) 
6

>  <Smiles>  (7) 
C(C(C1(C(C(N(C(=O)C(c2c(nc(c3c(c(c(c(c23)[H])[H])[H])[H])[H])[H])([H])[H])C(C1([H])[H])([H])[H])([H])[H])([H])[H])[H])([H])[H])([H])([H])[H]

>  <h>  (7) 
<NA>

>  <Training>  (7) 
True

>  <Success>  (7) 
True

>  <enamine_searched>  (7) 
False

>  <enamine_id>  (7) 
nan

$$$$

     RDKit          3D

 44 47  0  0  0  0  0  0  0  0999 V2000
  -10.0788   -5.9959  -27.5752 C   0  0  0  0  0  0  0  0  0  0  0  0
   -8.9628   -5.2961  -26.7985 C   0  0  0  0  0  0  0  0  0  0  0  0
   -9.2309   -5.5182  -25.0445 S   0  0  0  0  0  0  0  0  0  0  0  0
   -9.0467   -6.9213  -24.7255 O   0  0  0  0  0  0  0  0  0  0  0  0
  -10.4763   -4.8264  -24.7233 O   0  0  0  0  0  0  0  0  0  0  0  0
   -7.9602   -4.6962  -24.2743 N   0  0  0  0  0  0  0  0  0  0  0  0
   -7.9943   -3.2121  -24.3161 C   0  0  0  0  0  0  0  0  0  0  0  0
   -8.0666   -3.1497  -22.7686 C   0  0  0  0  0  0  0  0  0  0  0  0
   -8.0699   -4.6898  -22.7737 C   0  0  0  0  0  0  0  0  0  0  0  0
   -7.1858   -5.1298  -22.3106 H   0  0  0  0  0  0  0  0  0  0  0  0
   -8.9763   -5.1473  -22.3646 H   0  0  0  0  0  0  0  0  0  0  0  0
   -6.8682   -2.5287  -22.0672 C   0  0  0  0  0  0  0  0  0  0  0  0
   -5.7085   -2.8206  -22.2244 O   0  0  0  0  0  0  0  0  0  0  0  0
   -7.3658   -1.5385  -21.2157 N   0  0  0  0  0  0  0  0  0  0  0  0
   -6.5998   -0.8709  -20.2019 C   0  0  0  0  0  0  0  0  0  0  0  0
   -6.9143   -1.0680  -18.8787 C   0  0  0  0  0  0  0  0  0  0  0  0
   -6.2174   -0.5565  -17.8322 N   0  0  0  0  0  0  0  0  0  0  0  0
   -5.1832    0.2012  -18.0997 C   0  0  0  0  0  0  0  0  0  0  0  0
   -4.7546    0.5211  -19.4147 C   0  0  0  0  0  0  0  0  0  0  0  0
   -3.6263    1.3604  -19.6351 C   0  0  0  0  0  0  0  0  0  0  0  0
   -3.2431    1.6770  -20.9078 C   0  0  0  0  0  0  0  0  0  0  0  0
   -3.9844    1.1781  -22.0011 C   0  0  0  0  0  0  0  0  0  0  0  0
   -5.0664    0.3536  -21.8139 C   0  0  0  0  0  0  0  0  0  0  0  0
   -5.4847   -0.0126  -20.5057 C   0  0  0  0  0  0  0  0  0  0  0  0
   -5.5985   -0.0425  -22.6716 H   0  0  0  0  0  0  0  0  0  0  0  0
   -3.6619    1.4165  -23.0093 H   0  0  0  0  0  0  0  0  0  0  0  0
   -2.3741    2.3059  -21.0893 H   0  0  0  0  0  0  0  0  0  0  0  0
   -3.0872    1.7497  -18.7741 H   0  0  0  0  0  0  0  0  0  0  0  0
   -4.6309    0.6055  -17.2495 H   0  0  0  0  0  0  0  0  0  0  0  0
   -7.7633   -1.6868  -18.6029 H   0  0  0  0  0  0  0  0  0  0  0  0
   -8.7581   -1.3823  -21.4086 C   0  0  0  0  0  0  0  0  0  0  0  0
   -9.4350   -0.4592  -21.0136 O   0  0  0  0  0  0  0  0  0  0  0  0
   -9.1712   -2.4475  -22.1723 N   0  0  0  0  0  0  0  0  0  0  0  0
  -10.5606   -2.6983  -22.4961 C   0  0  0  0  0  0  0  0  0  0  0  0
  -10.7605   -2.4913  -23.5543 H   0  0  0  0  0  0  0  0  0  0  0  0
  -10.8322   -3.7407  -22.2837 H   0  0  0  0  0  0  0  0  0  0  0  0
  -11.1453   -2.0239  -21.8692 H   0  0  0  0  0  0  0  0  0  0  0  0
   -7.0659   -2.8249  -24.7347 H   0  0  0  0  0  0  0  0  0  0  0  0
   -8.8532   -2.7785  -24.8405 H   0  0  0  0  0  0  0  0  0  0  0  0
   -8.9671   -4.2132  -26.9682 H   0  0  0  0  0  0  0  0  0  0  0  0
   -7.9703   -5.7014  -27.0142 H   0  0  0  0  0  0  0  0  0  0  0  0
  -11.0427   -5.5806  -27.2824 H   0  0  0  0  0  0  0  0  0  0  0  0
   -9.9469   -5.8521  -28.6516 H   0  0  0  0  0  0  0  0  0  0  0  0
  -10.0953   -7.0697  -27.3627 H   0  0  0  0  0  0  0  0  0  0  0  0
  1  2  1  0
  2  3  1  0
  3  4  2  0
  3  5  2  0
  3  6  1  0
  6  7  1  0
  7  8  1  0
  8  9  1  0
  9 10  1  0
  9 11  1  0
  8 12  1  0
 12 13  2  0
 12 14  1  0
 14 15  1  0
 15 16  2  0
 16 17  1  0
 17 18  2  0
 18 19  1  0
 19 20  2  0
 20 21  1  0
 21 22  2  0
 22 23  1  0
 23 24  2  0
 23 25  1  0
 22 26  1  0
 21 27  1  0
 20 28  1  0
 18 29  1  0
 16 30  1  0
 14 31  1  0
 31 32  2  0
 31 33  1  0
 33 34  1  0
 34 35  1  0
 34 36  1  0
 34 37  1  0
  7 38  1  0
  7 39  1  0
  2 40  1  0
  2 41  1  0
  1 42  1  0
  1 43  1  0
  1 44  1  0
  9  6  1  0
 24 15  1  0
 33  8  1  0
 24 19  1  0
M  END
>  <cnnaffinities>  (8) 
[4.61938, 4.62934, 4.62343, 4.66857, 4.88675, 4.88695, 4.57661, 4.71602]

>  <score>  (8) 
4.61938

>  <index>  (8) 
7

>  <Smiles>  (8) 
C(C(S(=O)(=O)N1C(C2(C1([H])[H])C(=O)N(c1c(nc(c3c(c(c(c(c13)[H])[H])[H])[H])[H])[H])C(=O)N2C([H])([H])[H])([H])[H])([H])[H])([H])([H])[H]

>  <h>  (8) 
<NA>

>  <Training>  (8) 
True

>  <Success>  (8) 
True

>  <enamine_searched>  (8) 
False

>  <enamine_id>  (8) 
nan

$$$$

     RDKit          3D

 60 64  0  0  0  0  0  0  0  0999 V2000
  -12.3223    4.1219  -21.6737 C   0  0  0  0  0  0  0  0  0  0  0  0
  -12.2655    2.9542  -22.5162 N   0  0  0  0  0  0  0  0  0  0  0  0
  -11.1220    2.6325  -23.1715 C   0  0  0  0  0  0  0  0  0  0  0  0
  -10.0664    3.2260  -23.0295 O   0  0  0  0  0  0  0  0  0  0  0  0
  -11.2647    1.5147  -24.2059 C   0  0  0  0  0  0  0  0  0  0  0  0
  -11.2405    0.1793  -23.6433 N   0  0  0  0  0  0  0  0  0  0  0  0
  -10.0918   -0.6838  -23.9088 C   0  0  0  0  0  0  0  0  0  0  0  0
   -9.7238   -1.6033  -22.6945 C   0  0  2  0  0  0  0  0  0  0  0  0
   -9.0421   -0.6978  -21.6206 C   0  0  0  0  0  0  0  0  0  0  0  0
   -9.4937    0.3054  -21.1244 O   0  0  0  0  0  0  0  0  0  0  0  0
   -7.7937   -1.2083  -21.3280 N   0  0  0  0  0  0  0  0  0  0  0  0
   -7.0495   -0.6995  -20.2325 C   0  0  0  0  0  0  0  0  0  0  0  0
   -7.4414   -0.9526  -18.9433 C   0  0  0  0  0  0  0  0  0  0  0  0
   -6.7856   -0.5023  -17.8468 N   0  0  0  0  0  0  0  0  0  0  0  0
   -5.7177    0.2316  -18.0353 C   0  0  0  0  0  0  0  0  0  0  0  0
   -5.2008    0.5681  -19.3163 C   0  0  0  0  0  0  0  0  0  0  0  0
   -4.0553    1.3902  -19.4653 C   0  0  0  0  0  0  0  0  0  0  0  0
   -3.5791    1.6833  -20.7126 C   0  0  0  0  0  0  0  0  0  0  0  0
   -4.2176    1.1638  -21.8615 C   0  0  0  0  0  0  0  0  0  0  0  0
   -5.3307    0.3675  -21.7425 C   0  0  0  0  0  0  0  0  0  0  0  0
   -5.8629    0.0670  -20.4590 C   0  0  0  0  0  0  0  0  0  0  0  0
   -5.8152   -0.0322  -22.6293 H   0  0  0  0  0  0  0  0  0  0  0  0
   -3.8159    1.3988  -22.8437 H   0  0  0  0  0  0  0  0  0  0  0  0
   -2.7084    2.3226  -20.8287 H   0  0  0  0  0  0  0  0  0  0  0  0
   -3.5836    1.7856  -18.5688 H   0  0  0  0  0  0  0  0  0  0  0  0
   -5.2052    0.5980  -17.1464 H   0  0  0  0  0  0  0  0  0  0  0  0
   -8.3305   -1.5488  -18.7460 H   0  0  0  0  0  0  0  0  0  0  0  0
   -7.5981   -2.5528  -21.8240 C   0  0  0  0  0  0  0  0  0  0  0  0
   -8.5613   -2.6154  -23.0269 C   0  0  2  0  0  0  0  0  0  0  0  0
   -7.7625   -2.3218  -24.3077 C   0  0  0  0  0  0  0  0  0  0  0  0
   -6.7890   -3.3327  -24.4391 O   0  0  0  0  0  0  0  0  0  0  0  0
   -5.9602   -3.1507  -25.5577 C   0  0  0  0  0  0  0  0  0  0  0  0
   -5.4413   -2.1806  -25.5202 H   0  0  0  0  0  0  0  0  0  0  0  0
   -6.5311   -3.2100  -26.4969 H   0  0  0  0  0  0  0  0  0  0  0  0
   -5.2168   -3.9515  -25.5445 H   0  0  0  0  0  0  0  0  0  0  0  0
   -7.2698   -1.3339  -24.2408 H   0  0  0  0  0  0  0  0  0  0  0  0
   -8.4176   -2.3226  -25.1928 H   0  0  0  0  0  0  0  0  0  0  0  0
   -8.9327   -3.6314  -23.1742 H   0  0  0  0  0  0  0  0  0  0  0  0
   -6.5543   -2.7024  -22.1210 H   0  0  0  0  0  0  0  0  0  0  0  0
   -7.8385   -3.3064  -21.0595 H   0  0  0  0  0  0  0  0  0  0  0  0
  -11.0492   -2.2240  -22.2279 C   0  0  0  0  0  0  0  0  0  0  0  0
  -11.2030   -3.4929  -21.5682 C   0  0  0  0  0  0  0  0  0  0  0  0
  -12.8271   -3.7219  -21.2281 C   0  0  0  0  0  0  0  0  0  0  0  0
  -12.4477   -5.1376  -19.1627 Cl  0  0  0  0  0  0  0  0  0  0  0  0
  -12.8804   -3.8027  -20.8833 C   0  0  0  0  0  0  0  0  0  0  0  0
  -13.4685   -2.1778  -21.7837 C   0  0  0  0  0  0  0  0  0  0  0  0
  -12.2999   -1.5693  -22.4039 C   0  0  0  0  0  0  0  0  0  0  0  0
  -12.4106   -0.2930  -23.1087 C   0  0  0  0  0  0  0  0  0  0  0  0
  -13.4542    0.3590  -23.2071 O   0  0  0  0  0  0  0  0  0  0  0  0
  -14.1732   -2.4324  -22.5966 H   0  0  0  0  0  0  0  0  0  0  0  0
  -13.2222   -3.2431  -20.0141 H   0  0  0  0  0  0  0  0  0  0  0  0
  -10.8984   -4.3181  -22.1814 H   0  0  0  0  0  0  0  0  0  0  0  0
   -9.2537   -0.0294  -24.1553 H   0  0  0  0  0  0  0  0  0  0  0  0
  -10.3075   -1.3295  -24.7709 H   0  0  0  0  0  0  0  0  0  0  0  0
  -12.2125    1.6548  -24.7320 H   0  0  0  0  0  0  0  0  0  0  0  0
  -10.4273    1.6248  -24.8955 H   0  0  0  0  0  0  0  0  0  0  0  0
  -13.0831    2.3699  -22.6362 H   0  0  0  0  0  0  0  0  0  0  0  0
  -12.3454    3.8544  -20.6135 H   0  0  0  0  0  0  0  0  0  0  0  0
  -13.2009    4.7225  -21.9188 H   0  0  0  0  0  0  0  0  0  0  0  0
  -11.4226    4.7081  -21.8623 H   0  0  0  0  0  0  0  0  0  0  0  0
  1  2  1  0
  2  3  1  0
  3  4  2  0
  3  5  1  0
  5  6  1  0
  6  7  1  0
  8  7  1  6
  8  9  1  0
  9 10  2  0
  9 11  1  0
 11 12  1  0
 12 13  2  0
 13 14  1  0
 14 15  2  0
 15 16  1  0
 16 17  2  0
 17 18  1  0
 18 19  2  0
 19 20  1  0
 20 21  2  0
 20 22  1  0
 19 23  1  0
 18 24  1  0
 17 25  1  0
 15 26  1  0
 13 27  1  0
 11 28  1  0
 28 29  1  0
 29 30  1  0
 30 31  1  0
 31 32  1  0
 32 33  1  0
 32 34  1  0
 32 35  1  0
 30 36  1  0
 30 37  1  0
 29 38  1  6
 28 39  1  0
 28 40  1  0
  8 41  1  0
 41 42  2  0
 42 43  1  0
 43 44  1  0
 43 45  2  0
 45 46  1  0
 46 47  2  0
 47 48  1  0
 48 49  2  0
 46 50  1  0
 45 51  1  0
 42 52  1  0
  7 53  1  0
  7 54  1  0
  5 55  1  0
  5 56  1  0
  2 57  1  0
  1 58  1  0
  1 59  1  0
  1 60  1  0
 48  6  1  0
 29  8  1  0
 47 41  1  0
 21 12  1  0
 21 16  1  0
M  END
>  <cnnaffinities>  (9) 
[6.61623]

>  <score>  (9) 
6.61623

>  <index>  (9) 
8

>  <Smiles>  (9) 
C(N(C(=O)C(N1C([C@@]2(C(=O)N(c3c(nc(c4c(c(c(c(c34)[H])[H])[H])[H])[H])[H])C([C@@]2(C(OC([H])([H])[H])([H])[H])[H])([H])[H])c2c(c(Cl)c(c(c2C1=O)[H])[H])[H])([H])[H])([H])[H])[H])([H])([H])[H]

>  <h>  (9) 
<NA>

>  <Training>  (9) 
True

>  <Success>  (9) 
True

>  <enamine_searched>  (9) 
False

>  <enamine_id>  (9) 
nan

$$$$

     RDKit          3D

 41 43  0  0  0  0  0  0  0  0999 V2000
  -13.1790   -2.9272  -22.9035 C   0  0  0  0  0  0  0  0  0  0  0  0
  -11.9703   -2.0483  -23.2185 C   0  0  1  0  0  0  0  0  0  0  0  0
  -12.1567   -0.6591  -22.6452 C   0  0  0  0  0  0  0  0  0  0  0  0
  -11.3188    0.3563  -22.8350 C   0  0  0  0  0  0  0  0  0  0  0  0
  -10.0218    0.2185  -23.6031 C   0  0  0  0  0  0  0  0  0  0  0  0
   -9.0912   -0.7824  -23.0594 N   0  0  0  0  0  0  0  0  0  0  0  0
   -8.3785   -0.4053  -21.9314 C   0  0  0  0  0  0  0  0  0  0  0  0
   -8.4796    0.7165  -21.4707 O   0  0  0  0  0  0  0  0  0  0  0  0
   -7.4318   -1.4338  -21.2734 C   0  0  0  0  0  0  0  0  0  0  0  0
   -6.5798   -0.8295  -20.1817 C   0  0  0  0  0  0  0  0  0  0  0  0
   -6.8785   -1.0400  -18.8624 C   0  0  0  0  0  0  0  0  0  0  0  0
   -6.1912   -0.5405  -17.8001 N   0  0  0  0  0  0  0  0  0  0  0  0
   -5.1569    0.2202  -18.0650 C   0  0  0  0  0  0  0  0  0  0  0  0
   -4.7252    0.5355  -19.3799 C   0  0  0  0  0  0  0  0  0  0  0  0
   -3.5998    1.3669  -19.6194 C   0  0  0  0  0  0  0  0  0  0  0  0
   -3.2193    1.6678  -20.8984 C   0  0  0  0  0  0  0  0  0  0  0  0
   -3.9566    1.1552  -21.9881 C   0  0  0  0  0  0  0  0  0  0  0  0
   -5.0348    0.3304  -21.7852 C   0  0  0  0  0  0  0  0  0  0  0  0
   -5.4555    0.0011  -20.4713 C   0  0  0  0  0  0  0  0  0  0  0  0
   -5.5762   -0.0663  -22.6378 H   0  0  0  0  0  0  0  0  0  0  0  0
   -3.6290    1.3789  -22.9993 H   0  0  0  0  0  0  0  0  0  0  0  0
   -2.3544    2.3001  -21.0886 H   0  0  0  0  0  0  0  0  0  0  0  0
   -3.0564    1.7756  -18.7701 H   0  0  0  0  0  0  0  0  0  0  0  0
   -4.6016    0.6271  -17.2164 H   0  0  0  0  0  0  0  0  0  0  0  0
   -7.7302   -1.6601  -18.5863 H   0  0  0  0  0  0  0  0  0  0  0  0
   -6.7959   -1.8991  -22.0383 H   0  0  0  0  0  0  0  0  0  0  0  0
   -8.0415   -2.2444  -20.8454 H   0  0  0  0  0  0  0  0  0  0  0  0
   -9.3947   -2.1694  -23.3974 C   0  0  0  0  0  0  0  0  0  0  0  0
  -10.6668   -2.7292  -22.7528 C   0  0  0  0  0  0  0  0  0  0  0  0
  -10.5872   -2.6366  -21.6642 H   0  0  0  0  0  0  0  0  0  0  0  0
  -10.7248   -3.8070  -22.9660 H   0  0  0  0  0  0  0  0  0  0  0  0
   -8.5303   -2.7930  -23.1562 H   0  0  0  0  0  0  0  0  0  0  0  0
   -9.5105   -2.2197  -24.4855 H   0  0  0  0  0  0  0  0  0  0  0  0
  -10.2457   -0.0759  -24.6353 H   0  0  0  0  0  0  0  0  0  0  0  0
   -9.5080    1.1796  -23.6527 H   0  0  0  0  0  0  0  0  0  0  0  0
  -11.5328    1.3284  -22.3880 H   0  0  0  0  0  0  0  0  0  0  0  0
  -13.0291   -0.4932  -22.0117 H   0  0  0  0  0  0  0  0  0  0  0  0
  -11.9079   -1.9514  -24.3128 H   0  0  0  0  0  0  0  0  0  0  0  0
  -13.0969   -3.9093  -23.3850 H   0  0  0  0  0  0  0  0  0  0  0  0
  -13.2636   -3.0897  -21.8219 H   0  0  0  0  0  0  0  0  0  0  0  0
  -14.1065   -2.4567  -23.2511 H   0  0  0  0  0  0  0  0  0  0  0  0
  1  2  1  0
  2  3  1  0
  3  4  2  0
  4  5  1  0
  5  6  1  0
  6  7  1  0
  7  8  2  0
  7  9  1  0
  9 10  1  0
 10 11  2  0
 11 12  1  0
 12 13  2  0
 13 14  1  0
 14 15  2  0
 15 16  1  0
 16 17  2  0
 17 18  1  0
 18 19  2  0
 18 20  1  0
 17 21  1  0
 16 22  1  0
 15 23  1  0
 13 24  1  0
 11 25  1  0
  9 26  1  0
  9 27  1  0
  6 28  1  0
 28 29  1  0
 29 30  1  0
 29 31  1  0
 28 32  1  0
 28 33  1  0
  5 34  1  0
  5 35  1  0
  4 36  1  0
  3 37  1  0
  2 38  1  6
  1 39  1  0
  1 40  1  0
  1 41  1  0
 29  2  1  0
 19 10  1  0
 19 14  1  0
M  END
>  <cnnaffinities>  (10) 
[4.36381, 4.66101]

>  <score>  (10) 
4.36381

>  <index>  (10) 
9

>  <Smiles>  (10) 
C([C@]1(C(=C(C(N(C(=O)C(c2c(nc(c3c(c(c(c(c23)[H])[H])[H])[H])[H])[H])([H])[H])C(C1([H])[H])([H])[H])([H])[H])[H])[H])[H])([H])([H])[H]

>  <h>  (10) 
<NA>

>  <Training>  (10) 
True

>  <Success>  (10) 
True

>  <enamine_searched>  (10) 
False

>  <enamine_id>  (10) 
nan

$$$$

     RDKit          3D

 57 62  0  0  0  0  0  0  0  0999 V2000
  -10.3783   -0.9884  -23.4265 C   0  0  0  0  0  0  0  0  0  0  0  0
   -8.9731   -1.3888  -22.9834 C   0  0  1  0  0  0  0  0  0  0  0  0
   -8.3876   -0.4851  -21.8901 C   0  0  0  0  0  0  0  0  0  0  0  0
   -7.4036   -1.3345  -21.2409 N   0  0  0  0  0  0  0  0  0  0  0  0
   -6.5943   -0.8694  -20.1805 C   0  0  0  0  0  0  0  0  0  0  0  0
   -6.8840   -1.1752  -18.8757 C   0  0  0  0  0  0  0  0  0  0  0  0
   -6.2182   -0.6554  -17.8127 N   0  0  0  0  0  0  0  0  0  0  0  0
   -5.2270    0.1704  -18.0547 C   0  0  0  0  0  0  0  0  0  0  0  0
   -4.7965    0.5377  -19.3637 C   0  0  0  0  0  0  0  0  0  0  0  0
   -3.6976    1.4097  -19.5955 C   0  0  0  0  0  0  0  0  0  0  0  0
   -3.3388    1.7449  -20.8738 C   0  0  0  0  0  0  0  0  0  0  0  0
   -4.0524    1.2257  -21.9778 C   0  0  0  0  0  0  0  0  0  0  0  0
   -5.1040    0.3664  -21.7787 C   0  0  0  0  0  0  0  0  0  0  0  0
   -5.5045    0.0103  -20.4644 C   0  0  0  0  0  0  0  0  0  0  0  0
   -5.6397   -0.0536  -22.6221 H   0  0  0  0  0  0  0  0  0  0  0  0
   -3.7486    1.4863  -22.9887 H   0  0  0  0  0  0  0  0  0  0  0  0
   -2.4941    2.4045  -21.0554 H   0  0  0  0  0  0  0  0  0  0  0  0
   -3.1501    1.7988  -18.7402 H   0  0  0  0  0  0  0  0  0  0  0  0
   -4.7082    0.5922  -17.1916 H   0  0  0  0  0  0  0  0  0  0  0  0
   -7.6957   -1.8619  -18.6393 H   0  0  0  0  0  0  0  0  0  0  0  0
   -7.6389   -2.6763  -21.4288 C   0  0  0  0  0  0  0  0  0  0  0  0
   -7.0018   -3.5586  -20.8900 O   0  0  0  0  0  0  0  0  0  0  0  0
   -8.8109   -2.8387  -22.4097 C   0  0  1  0  0  0  0  0  0  0  0  0
  -10.0242   -3.2798  -21.5599 C   0  0  0  0  0  0  0  0  0  0  0  0
  -11.1609   -3.7529  -22.3452 N   0  0  0  0  0  0  0  0  0  0  0  0
  -12.5257   -3.7065  -21.8061 C   0  0  0  0  0  0  0  0  0  0  0  0
  -13.3726   -2.5753  -22.2975 C   0  0  0  0  0  0  0  0  0  0  0  0
  -14.0133   -1.5906  -21.6329 C   0  0  0  0  0  0  0  0  0  0  0  0
  -14.7611   -0.8956  -22.5573 N   0  0  0  0  0  4  0  0  0  0  0  0
  -14.5710   -1.4412  -23.7658 C   0  0  0  0  0  0  0  0  0  0  0  0
  -13.7202   -2.4724  -23.6323 N   0  0  0  0  0  0  0  0  0  0  0  0
  -13.3882   -3.1258  -24.3376 H   0  0  0  0  0  0  0  0  0  0  0  0
  -15.0137   -1.1025  -24.6815 H   0  0  0  0  0  0  0  0  0  0  0  0
  -15.3718   -0.1274  -22.3132 H   0  0  0  0  0  0  0  0  0  0  0  0
  -13.9810   -1.3051  -20.5880 H   0  0  0  0  0  0  0  0  0  0  0  0
  -13.0259   -4.6171  -22.1506 H   0  0  0  0  0  0  0  0  0  0  0  0
  -12.5006   -3.7196  -20.7114 H   0  0  0  0  0  0  0  0  0  0  0  0
  -10.9736   -4.5216  -23.4596 C   0  0  0  0  0  0  0  0  0  0  0  0
  -11.9207   -5.0227  -24.0559 O   0  0  0  0  0  0  0  0  0  0  0  0
   -9.5719   -4.6853  -23.9458 C   0  0  0  0  0  0  0  0  0  0  0  0
   -9.3325   -5.6579  -24.9130 C   0  0  0  0  0  0  0  0  0  0  0  0
   -8.0549   -5.8740  -25.3900 C   0  0  0  0  0  0  0  0  0  0  0  0
   -7.0301   -5.0675  -24.9152 C   0  0  0  0  0  0  0  0  0  0  0  0
   -5.7914   -5.2430  -25.4051 F   0  0  0  0  0  0  0  0  0  0  0  0
   -7.2437   -4.0847  -23.9713 C   0  0  0  0  0  0  0  0  0  0  0  0
   -8.5307   -3.8929  -23.4552 C   0  0  0  0  0  0  0  0  0  0  0  0
   -6.3988   -3.4997  -23.6304 H   0  0  0  0  0  0  0  0  0  0  0  0
   -7.8350   -6.6500  -26.1116 H   0  0  0  0  0  0  0  0  0  0  0  0
  -10.1794   -6.2375  -25.2666 H   0  0  0  0  0  0  0  0  0  0  0  0
   -9.6761   -4.0671  -20.8842 H   0  0  0  0  0  0  0  0  0  0  0  0
  -10.3340   -2.4218  -20.9553 H   0  0  0  0  0  0  0  0  0  0  0  0
   -7.9153    0.4163  -22.2882 H   0  0  0  0  0  0  0  0  0  0  0  0
   -9.1516   -0.1655  -21.1652 H   0  0  0  0  0  0  0  0  0  0  0  0
   -8.2997   -1.3426  -23.8491 H   0  0  0  0  0  0  0  0  0  0  0  0
  -11.0882   -1.0006  -22.5916 H   0  0  0  0  0  0  0  0  0  0  0  0
  -10.7455   -1.6800  -24.1905 H   0  0  0  0  0  0  0  0  0  0  0  0
  -10.3900    0.0234  -23.8421 H   0  0  0  0  0  0  0  0  0  0  0  0
  1  2  1  0
  2  3  1  0
  3  4  1  0
  4  5  1  0
  5  6  2  0
  6  7  1  0
  7  8  2  0
  8  9  1  0
  9 10  2  0
 10 11  1  0
 11 12  2  0
 12 13  1  0
 13 14  2  0
 13 15  1  0
 12 16  1  0
 11 17  1  0
 10 18  1  0
  8 19  1  0
  6 20  1  0
  4 21  1  0
 21 22  2  0
 21 23  1  0
 23 24  1  1
 24 25  1  0
 25 26  1  0
 26 27  1  0
 27 28  2  0
 28 29  1  0
 29 30  2  0
 30 31  1  0
 31 32  1  0
 30 33  1  0
 29 34  1  0
 28 35  1  0
 26 36  1  0
 26 37  1  0
 25 38  1  0
 38 39  2  0
 38 40  1  0
 40 41  2  0
 41 42  1  0
 42 43  2  0
 43 44  1  0
 43 45  1  0
 45 46  2  0
 45 47  1  0
 42 48  1  0
 41 49  1  0
 24 50  1  0
 24 51  1  0
  3 52  1  0
  3 53  1  0
  2 54  1  6
  1 55  1  0
  1 56  1  0
  1 57  1  0
 23  2  1  0
 31 27  1  0
 46 40  1  0
 14  5  1  0
 46 23  1  0
 14  9  1  0
M  CHG  1  29   1
M  END
>  <cnnaffinities>  (11) 
[6.44074]

>  <score>  (11) 
6.44074

>  <index>  (11) 
10

>  <Smiles>  (11) 
C([C@]1(C(N(c2c(nc(c3c(c(c(c(c23)[H])[H])[H])[H])[H])[H])C(=O)[C@]21C(N(C(c1c([n+](c(n1[H])[H])[H])[H])([H])[H])C(=O)c1c(c(c(F)c(c21)[H])[H])[H])([H])[H])([H])[H])[H])([H])([H])[H]

>  <h>  (11) 
<NA>

>  <Training>  (11) 
True

>  <Success>  (11) 
True

>  <enamine_searched>  (11) 
False

>  <enamine_id>  (11) 
nan

$$$$

     RDKit          3D

 48 52  0  0  0  0  0  0  0  0999 V2000
   -9.6863   -0.9153  -23.9827 C   0  0  0  0  0  0  0  0  0  0  0  0
   -8.6826   -1.3684  -23.0544 N   0  0  0  0  0  0  0  0  0  0  0  0
   -8.4504   -0.7346  -21.8633 C   0  0  0  0  0  0  0  0  0  0  0  0
   -9.0557    0.2024  -21.3859 O   0  0  0  0  0  0  0  0  0  0  0  0
   -7.3567   -1.4007  -21.2806 N   0  0  0  0  0  0  0  0  0  0  0  0
   -6.5870   -0.8262  -20.2349 C   0  0  0  0  0  0  0  0  0  0  0  0
   -6.9329   -1.0715  -18.9345 C   0  0  0  0  0  0  0  0  0  0  0  0
   -6.2509   -0.5925  -17.8640 N   0  0  0  0  0  0  0  0  0  0  0  0
   -5.2130    0.1738  -18.1064 C   0  0  0  0  0  0  0  0  0  0  0  0
   -4.7597    0.5207  -19.4144 C   0  0  0  0  0  0  0  0  0  0  0  0
   -3.6301    1.3596  -19.6244 C   0  0  0  0  0  0  0  0  0  0  0  0
   -3.2380    1.6803  -20.8972 C   0  0  0  0  0  0  0  0  0  0  0  0
   -3.9611    1.1957  -22.0139 C   0  0  0  0  0  0  0  0  0  0  0  0
   -5.0410    0.3684  -21.8362 C   0  0  0  0  0  0  0  0  0  0  0  0
   -5.4679    0.0155  -20.5231 C   0  0  0  0  0  0  0  0  0  0  0  0
   -5.5765   -0.0122  -22.6991 H   0  0  0  0  0  0  0  0  0  0  0  0
   -3.6361    1.4512  -23.0212 H   0  0  0  0  0  0  0  0  0  0  0  0
   -2.3691    2.3128  -21.0678 H   0  0  0  0  0  0  0  0  0  0  0  0
   -3.0961    1.7398  -18.7554 H   0  0  0  0  0  0  0  0  0  0  0  0
   -4.6708    0.5704  -17.2461 H   0  0  0  0  0  0  0  0  0  0  0  0
   -7.7970   -1.7018  -18.7370 H   0  0  0  0  0  0  0  0  0  0  0  0
   -6.9138   -2.4670  -22.0704 C   0  0  0  0  0  0  0  0  0  0  0  0
   -6.0048   -3.2153  -21.8118 O   0  0  0  0  0  0  0  0  0  0  0  0
   -7.7889   -2.4668  -23.3077 C   0  0  0  0  0  0  0  0  0  0  0  0
   -8.4029   -3.8302  -23.7071 C   0  0  0  0  0  0  0  0  0  0  0  0
   -7.6356   -3.8180  -24.9694 N   0  0  0  0  0  0  0  0  0  0  0  0
   -8.4493   -3.8851  -26.4379 S   0  0  0  0  0  0  0  0  0  0  0  0
   -9.5165   -2.8858  -26.4327 O   0  0  0  0  0  0  0  0  0  0  0  0
   -7.4308   -3.8492  -27.4751 O   0  0  0  0  0  0  0  0  0  0  0  0
   -9.2281   -5.4768  -26.3861 C   0  0  0  0  0  0  0  0  0  0  0  0
   -8.5780   -6.6180  -25.9226 C   0  0  0  0  0  0  0  0  0  0  0  0
   -9.2435   -7.8330  -26.0411 C   0  0  0  0  0  0  0  0  0  0  0  0
  -10.5000   -7.8997  -26.6345 C   0  0  0  0  0  0  0  0  0  0  0  0
  -11.1080   -6.7578  -27.1353 C   0  0  0  0  0  0  0  0  0  0  0  0
  -10.4781   -5.5325  -26.9909 C   0  0  0  0  0  0  0  0  0  0  0  0
  -10.9192   -4.6047  -27.3378 H   0  0  0  0  0  0  0  0  0  0  0  0
  -12.0472   -6.8365  -27.6641 H   0  0  0  0  0  0  0  0  0  0  0  0
  -11.0014   -8.8545  -26.7391 H   0  0  0  0  0  0  0  0  0  0  0  0
   -8.7650   -8.7385  -25.7073 H   0  0  0  0  0  0  0  0  0  0  0  0
   -7.5760   -6.5545  -25.5003 H   0  0  0  0  0  0  0  0  0  0  0  0
   -7.0150   -2.5075  -24.6476 C   0  0  0  0  0  0  0  0  0  0  0  0
   -7.2469   -1.7056  -25.3525 H   0  0  0  0  0  0  0  0  0  0  0  0
   -5.9340   -2.6101  -24.5387 H   0  0  0  0  0  0  0  0  0  0  0  0
   -8.0897   -4.6616  -23.0712 H   0  0  0  0  0  0  0  0  0  0  0  0
   -9.4869   -3.8418  -23.8393 H   0  0  0  0  0  0  0  0  0  0  0  0
  -10.2439   -0.1256  -23.4839 H   0  0  0  0  0  0  0  0  0  0  0  0
  -10.3569   -1.7355  -24.2435 H   0  0  0  0  0  0  0  0  0  0  0  0
   -9.2239   -0.5205  -24.8914 H   0  0  0  0  0  0  0  0  0  0  0  0
  1  2  1  0
  2  3  1  0
  3  4  2  0
  3  5  1  0
  5  6  1  0
  6  7  2  0
  7  8  1  0
  8  9  2  0
  9 10  1  0
 10 11  2  0
 11 12  1  0
 12 13  2  0
 13 14  1  0
 14 15  2  0
 14 16  1  0
 13 17  1  0
 12 18  1  0
 11 19  1  0
  9 20  1  0
  7 21  1  0
  5 22  1  0
 22 23  2  0
 22 24  1  0
 24 25  1  0
 25 26  1  0
 26 27  1  0
 27 28  2  0
 27 29  2  0
 27 30  1  0
 30 31  2  0
 31 32  1  0
 32 33  2  0
 33 34  1  0
 34 35  2  0
 35 36  1  0
 34 37  1  0
 33 38  1  0
 32 39  1  0
 31 40  1  0
 26 41  1  0
 41 42  1  0
 41 43  1  0
 25 44  1  0
 25 45  1  0
  1 46  1  0
  1 47  1  0
  1 48  1  0
 24  2  1  0
 35 30  1  0
 15  6  1  0
 41 24  1  0
 15 10  1  0
M  END
>  <cnnaffinities>  (12) 
[5.00248, 5.01052, 4.98008, 4.31209, 5.45087]

>  <score>  (12) 
5.00248

>  <index>  (12) 
11

>  <Smiles>  (12) 
C(N1C(=O)N(c2c(nc(c3c(c(c(c(c23)[H])[H])[H])[H])[H])[H])C(=O)C21C(N(S(=O)(=O)c1c(c(c(c(c1[H])[H])[H])[H])[H])C2([H])[H])([H])[H])([H])([H])[H]

>  <h>  (12) 
<NA>

>  <Training>  (12) 
True

>  <Success>  (12) 
True

>  <enamine_searched>  (12) 
False

>  <enamine_id>  (12) 
nan

$$$$

     RDKit          3D

 76 82  0  0  0  0  0  0  0  0999 V2000
  -10.1977    1.6047  -25.4706 O   0  0  0  0  0  0  0  0  0  0  0  0
   -9.9116    0.5953  -24.8336 C   0  0  0  0  0  0  0  0  0  0  0  0
  -10.8861   -0.0327  -23.8792 C   0  0  0  0  0  0  0  0  0  0  0  0
  -12.1844    0.4774  -23.8619 C   0  0  0  0  0  0  0  0  0  0  0  0
  -13.1551   -0.1378  -23.0971 C   0  0  0  0  0  0  0  0  0  0  0  0
  -12.7975   -1.2164  -22.2845 C   0  0  0  0  0  0  0  0  0  0  0  0
  -14.0071   -2.0330  -21.3180 Cl  0  0  0  0  0  0  0  0  0  0  0  0
  -11.4882   -1.6659  -22.2132 C   0  0  0  0  0  0  0  0  0  0  0  0
  -10.5072   -1.0904  -23.0344 C   0  0  0  0  0  0  0  0  0  0  0  0
   -9.0411   -1.4835  -22.9581 C   0  0  1  0  0  0  0  0  0  0  0  0
   -8.4053   -1.3055  -24.3675 C   0  0  0  0  0  0  0  0  0  0  0  0
   -8.6955   -0.0064  -24.9474 N   0  0  0  0  0  0  0  0  0  0  0  0
   -7.6654    0.7230  -25.6699 C   0  0  0  0  0  0  0  0  0  0  0  0
   -7.1393    1.8666  -24.8138 C   0  0  0  0  0  0  0  0  0  0  0  0
   -6.1262    2.6856  -25.4997 N   0  0  0  0  0  4  0  0  0  0  0  0
   -4.9044    1.9045  -25.9238 C   0  0  0  0  0  0  0  0  0  0  0  0
   -3.7692    2.8898  -26.2147 C   0  0  0  0  0  0  0  0  0  0  0  0
   -4.3242    4.1187  -26.6336 O   0  0  0  0  0  0  0  0  0  0  0  0
   -4.8547    4.8083  -25.5176 C   0  0  0  0  0  0  0  0  0  0  0  0
   -5.7627    3.8859  -24.6859 C   0  0  0  0  0  0  0  0  0  0  0  0
   -6.6816    4.4021  -24.3948 H   0  0  0  0  0  0  0  0  0  0  0  0
   -5.2629    3.5576  -23.7667 H   0  0  0  0  0  0  0  0  0  0  0  0
   -5.4056    5.6592  -25.9241 H   0  0  0  0  0  0  0  0  0  0  0  0
   -4.0394    5.1972  -24.8862 H   0  0  0  0  0  0  0  0  0  0  0  0
   -3.1460    3.0428  -25.3188 H   0  0  0  0  0  0  0  0  0  0  0  0
   -3.1292    2.5224  -27.0213 H   0  0  0  0  0  0  0  0  0  0  0  0
   -5.1528    1.3499  -26.8308 H   0  0  0  0  0  0  0  0  0  0  0  0
   -4.6322    1.1910  -25.1392 H   0  0  0  0  0  0  0  0  0  0  0  0
   -6.5549    3.0514  -26.3700 H   0  0  0  0  0  0  0  0  0  0  0  0
   -7.9796    2.5080  -24.5338 H   0  0  0  0  0  0  0  0  0  0  0  0
   -6.7198    1.4639  -23.8866 H   0  0  0  0  0  0  0  0  0  0  0  0
   -8.1021    1.1284  -26.5861 H   0  0  0  0  0  0  0  0  0  0  0  0
   -6.8672    0.0282  -25.9552 H   0  0  0  0  0  0  0  0  0  0  0  0
   -7.3153   -1.4024  -24.2782 H   0  0  0  0  0  0  0  0  0  0  0  0
   -8.7830   -2.0954  -25.0323 H   0  0  0  0  0  0  0  0  0  0  0  0
   -8.2819   -0.5768  -21.9593 C   0  0  0  0  0  0  0  0  0  0  0  0
   -8.3683    0.6287  -21.8384 O   0  0  0  0  0  0  0  0  0  0  0  0
   -7.4495   -1.3620  -21.1996 N   0  0  0  0  0  0  0  0  0  0  0  0
   -6.6421   -0.8219  -20.1831 C   0  0  0  0  0  0  0  0  0  0  0  0
   -6.9207   -1.1144  -18.8722 C   0  0  0  0  0  0  0  0  0  0  0  0
   -6.2294   -0.6245  -17.8192 N   0  0  0  0  0  0  0  0  0  0  0  0
   -5.2157    0.1650  -18.0860 C   0  0  0  0  0  0  0  0  0  0  0  0
   -4.7989    0.5142  -19.4006 C   0  0  0  0  0  0  0  0  0  0  0  0
   -3.6891    1.3678  -19.6217 C   0  0  0  0  0  0  0  0  0  0  0  0
   -3.3075    1.6949  -20.8928 C   0  0  0  0  0  0  0  0  0  0  0  0
   -4.0274    1.1888  -22.0000 C   0  0  0  0  0  0  0  0  0  0  0  0
   -5.0917    0.3417  -21.8143 C   0  0  0  0  0  0  0  0  0  0  0  0
   -5.5230    0.0055  -20.4987 C   0  0  0  0  0  0  0  0  0  0  0  0
   -5.6138   -0.0676  -22.6752 H   0  0  0  0  0  0  0  0  0  0  0  0
   -3.7153    1.4564  -23.0053 H   0  0  0  0  0  0  0  0  0  0  0  0
   -2.4516    2.3408  -21.0552 H   0  0  0  0  0  0  0  0  0  0  0  0
   -3.1604    1.7510  -18.7556 H   0  0  0  0  0  0  0  0  0  0  0  0
   -4.6689    0.5718  -17.2376 H   0  0  0  0  0  0  0  0  0  0  0  0
   -7.7672   -1.7588  -18.6326 H   0  0  0  0  0  0  0  0  0  0  0  0
   -7.4963   -2.7635  -21.5229 C   0  0  0  0  0  0  0  0  0  0  0  0
   -8.7702   -2.8881  -22.3543 C   0  0  2  0  0  0  0  0  0  0  0  0
   -8.6415   -4.0602  -23.3001 C   0  0  0  0  0  0  0  0  0  0  0  0
   -9.8358   -4.3125  -24.0605 N   0  0  0  0  0  0  0  0  0  0  0  0
   -9.8759   -5.3450  -24.9314 C   0  0  0  0  0  0  0  0  0  0  0  0
  -11.0676   -5.6964  -25.4444 N   0  0  0  0  0  0  0  0  0  0  0  0
  -11.0050   -6.6250  -26.3873 C   0  0  0  0  0  0  0  0  0  0  0  0
   -9.8277   -7.2088  -26.8318 C   0  0  0  0  0  0  0  0  0  0  0  0
   -8.6759   -6.8071  -26.1787 C   0  0  0  0  0  0  0  0  0  0  0  0
   -8.6826   -5.9055  -25.2091 N   0  0  0  0  0  0  0  0  0  0  0  0
   -7.7000   -7.1929  -26.4682 H   0  0  0  0  0  0  0  0  0  0  0  0
   -9.8054   -7.9208  -27.6425 H   0  0  0  0  0  0  0  0  0  0  0  0
  -11.9475   -6.9145  -26.8337 H   0  0  0  0  0  0  0  0  0  0  0  0
  -10.7112   -3.8731  -23.8221 H   0  0  0  0  0  0  0  0  0  0  0  0
   -8.3619   -4.9631  -22.7469 H   0  0  0  0  0  0  0  0  0  0  0  0
   -7.8133   -3.8855  -23.9923 H   0  0  0  0  0  0  0  0  0  0  0  0
   -9.5786   -3.1011  -21.6573 H   0  0  0  0  0  0  0  0  0  0  0  0
   -6.6149   -3.0762  -22.1029 H   0  0  0  0  0  0  0  0  0  0  0  0
   -7.5255   -3.3728  -20.6148 H   0  0  0  0  0  0  0  0  0  0  0  0
  -11.2625   -2.4315  -21.4761 H   0  0  0  0  0  0  0  0  0  0  0  0
  -14.1850    0.1977  -23.1223 H   0  0  0  0  0  0  0  0  0  0  0  0
  -12.4072    1.3630  -24.4554 H   0  0  0  0  0  0  0  0  0  0  0  0
  1  2  2  0
  2  3  1  0
  3  4  2  0
  4  5  1  0
  5  6  2  0
  6  7  1  0
  6  8  1  0
  8  9  2  0
  9 10  1  0
 10 11  1  6
 11 12  1  0
 12 13  1  0
 13 14  1  0
 14 15  1  0
 15 16  1  0
 16 17  1  0
 17 18  1  0
 18 19  1  0
 19 20  1  0
 20 21  1  0
 20 22  1  0
 19 23  1  0
 19 24  1  0
 17 25  1  0
 17 26  1  0
 16 27  1  0
 16 28  1  0
 15 29  1  0
 14 30  1  0
 14 31  1  0
 13 32  1  0
 13 33  1  0
 11 34  1  0
 11 35  1  0
 10 36  1  0
 36 37  2  0
 36 38  1  0
 38 39  1  0
 39 40  2  0
 40 41  1  0
 41 42  2  0
 42 43  1  0
 43 44  2  0
 44 45  1  0
 45 46  2  0
 46 47  1  0
 47 48  2  0
 47 49  1  0
 46 50  1  0
 45 51  1  0
 44 52  1  0
 42 53  1  0
 40 54  1  0
 38 55  1  0
 55 56  1  0
 56 57  1  0
 57 58  1  0
 58 59  1  0
 59 60  2  0
 60 61  1  0
 61 62  2  0
 62 63  1  0
 63 64  2  0
 63 65  1  0
 62 66  1  0
 61 67  1  0
 58 68  1  0
 57 69  1  0
 57 70  1  0
 56 71  1  1
 55 72  1  0
 55 73  1  0
  8 74  1  0
  5 75  1  0
  4 76  1  0
 12  2  1  0
 20 15  1  0
 48 39  1  0
 64 59  1  0
  9  3  1  0
 56 10  1  0
 48 43  1  0
M  CHG  1  15   1
M  END
>  <cnnaffinities>  (13) 
[6.30702, 6.55632]

>  <score>  (13) 
6.30702

>  <index>  (13) 
12

>  <Smiles>  (13) 
O=C1c2c(c(c(Cl)c(c2[C@@]2(C(N1C(C([N+]1(C(C(OC(C1([H])[H])([H])[H])([H])[H])([H])[H])[H])([H])[H])([H])[H])([H])[H])C(=O)N(c1c(nc(c3c(c(c(c(c13)[H])[H])[H])[H])[H])[H])C([C@@]2(C(N(c1nc(c(c(n1)[H])[H])[H])[H])([H])[H])[H])([H])[H])[H])[H])[H]

>  <h>  (13) 
<NA>

>  <Training>  (13) 
True

>  <Success>  (13) 
True

>  <enamine_searched>  (13) 
False

>  <enamine_id>  (13) 
nan

$$$$

     RDKit          3D

 69 74  0  0  0  0  0  0  0  0999 V2000
   -7.4275    3.3739  -21.8235 C   0  0  0  0  0  0  0  0  0  0  0  0
   -8.4654    2.8904  -22.7189 N   0  0  0  0  0  0  0  0  0  0  0  0
   -8.0718    2.1448  -23.7887 C   0  0  0  0  0  0  0  0  0  0  0  0
   -6.8958    1.8955  -24.0068 O   0  0  0  0  0  0  0  0  0  0  0  0
   -9.1492    1.5908  -24.7184 C   0  0  0  0  0  0  0  0  0  0  0  0
   -9.7414    0.4088  -24.1311 N   0  0  0  0  0  0  0  0  0  0  0  0
   -8.9546   -0.8131  -24.0642 C   0  0  0  0  0  0  0  0  0  0  0  0
   -9.2278   -1.5997  -22.7591 C   0  0  2  0  0  0  0  0  0  0  0  0
   -8.6417   -0.8094  -21.5584 C   0  0  0  0  0  0  0  0  0  0  0  0
   -9.1137    0.1743  -21.0242 O   0  0  0  0  0  0  0  0  0  0  0  0
   -7.4482   -1.3939  -21.1972 N   0  0  0  0  0  0  0  0  0  0  0  0
   -6.6367   -0.8228  -20.1837 C   0  0  0  0  0  0  0  0  0  0  0  0
   -6.9427   -1.0576  -18.8670 C   0  0  0  0  0  0  0  0  0  0  0  0
   -6.2323   -0.5833  -17.8164 N   0  0  0  0  0  0  0  0  0  0  0  0
   -5.1976    0.1770  -18.0840 C   0  0  0  0  0  0  0  0  0  0  0  0
   -4.7793    0.5187  -19.3995 C   0  0  0  0  0  0  0  0  0  0  0  0
   -3.6604    1.3653  -19.6283 C   0  0  0  0  0  0  0  0  0  0  0  0
   -3.2917    1.6940  -20.9041 C   0  0  0  0  0  0  0  0  0  0  0  0
   -4.0256    1.2021  -22.0029 C   0  0  0  0  0  0  0  0  0  0  0  0
   -5.1068    0.3713  -21.8108 C   0  0  0  0  0  0  0  0  0  0  0  0
   -5.5132    0.0062  -20.4966 C   0  0  0  0  0  0  0  0  0  0  0  0
   -5.6638    0.0231  -22.6727 H   0  0  0  0  0  0  0  0  0  0  0  0
   -3.7221    1.4665  -23.0121 H   0  0  0  0  0  0  0  0  0  0  0  0
   -2.4286    2.3314  -21.0782 H   0  0  0  0  0  0  0  0  0  0  0  0
   -3.1191    1.7472  -18.7679 H   0  0  0  0  0  0  0  0  0  0  0  0
   -4.6300    0.5669  -17.2373 H   0  0  0  0  0  0  0  0  0  0  0  0
   -7.8054   -1.6715  -18.6231 H   0  0  0  0  0  0  0  0  0  0  0  0
   -7.0999   -2.5592  -21.9878 C   0  0  0  0  0  0  0  0  0  0  0  0
   -8.4132   -2.9280  -22.6987 C   0  0  2  0  0  0  0  0  0  0  0  0
   -8.1473   -3.6856  -24.0057 C   0  0  0  0  0  0  0  0  0  0  0  0
   -9.3639   -4.1592  -24.6265 N   0  0  0  0  0  0  0  0  0  0  0  0
   -9.3517   -4.8479  -25.8011 C   0  0  0  0  0  0  0  0  0  0  0  0
  -10.5236   -5.4535  -26.3020 C   0  0  0  0  0  0  0  0  0  0  0  0
  -10.4520   -5.9597  -27.5802 C   0  0  0  0  0  0  0  0  0  0  0  0
   -9.3192   -5.9851  -28.2984 N   0  0  0  0  0  0  0  0  0  0  0  0
   -8.2300   -5.5269  -27.6762 C   0  0  0  0  0  0  0  0  0  0  0  0
   -6.9279   -5.7783  -28.4012 C   0  0  0  0  0  0  0  0  0  0  0  0
   -7.1120   -5.7431  -29.4832 H   0  0  0  0  0  0  0  0  0  0  0  0
   -6.5947   -6.7997  -28.1572 H   0  0  0  0  0  0  0  0  0  0  0  0
   -6.1354   -5.0746  -28.1132 H   0  0  0  0  0  0  0  0  0  0  0  0
   -8.1921   -4.9257  -26.4778 N   0  0  0  0  0  0  0  0  0  0  0  0
  -11.3295   -6.3729  -28.0781 H   0  0  0  0  0  0  0  0  0  0  0  0
  -11.4380   -5.5247  -25.7158 H   0  0  0  0  0  0  0  0  0  0  0  0
  -10.2486   -4.0102  -24.1634 H   0  0  0  0  0  0  0  0  0  0  0  0
   -7.5001   -4.5470  -23.7966 H   0  0  0  0  0  0  0  0  0  0  0  0
   -7.5991   -3.0556  -24.7214 H   0  0  0  0  0  0  0  0  0  0  0  0
   -8.9625   -3.6070  -22.0381 H   0  0  0  0  0  0  0  0  0  0  0  0
   -6.3046   -2.3349  -22.7167 H   0  0  0  0  0  0  0  0  0  0  0  0
   -6.7412   -3.3723  -21.3491 H   0  0  0  0  0  0  0  0  0  0  0  0
  -10.7340   -1.7382  -22.6133 C   0  0  0  0  0  0  0  0  0  0  0  0
  -11.3064   -2.7304  -21.8110 C   0  0  0  0  0  0  0  0  0  0  0  0
  -12.6705   -2.7279  -21.5775 C   0  0  0  0  0  0  0  0  0  0  0  0
  -13.3500   -3.8363  -20.4374 Cl  0  0  0  0  0  0  0  0  0  0  0  0
  -13.5291   -1.8060  -22.1672 C   0  0  0  0  0  0  0  0  0  0  0  0
  -12.9764   -0.8294  -22.9610 C   0  0  0  0  0  0  0  0  0  0  0  0
  -11.6000   -0.7760  -23.1559 C   0  0  0  0  0  0  0  0  0  0  0  0
  -11.0842    0.4109  -23.8976 C   0  0  0  0  0  0  0  0  0  0  0  0
  -11.8170    1.3295  -24.2473 O   0  0  0  0  0  0  0  0  0  0  0  0
  -13.5722   -0.0506  -23.4210 H   0  0  0  0  0  0  0  0  0  0  0  0
  -14.5929   -1.8384  -21.9646 H   0  0  0  0  0  0  0  0  0  0  0  0
  -10.7101   -3.4829  -21.3086 H   0  0  0  0  0  0  0  0  0  0  0  0
   -7.8970   -0.5398  -24.1282 H   0  0  0  0  0  0  0  0  0  0  0  0
   -9.1955   -1.4589  -24.9199 H   0  0  0  0  0  0  0  0  0  0  0  0
   -8.6738    1.3310  -25.6732 H   0  0  0  0  0  0  0  0  0  0  0  0
   -9.9675    2.2898  -24.9092 H   0  0  0  0  0  0  0  0  0  0  0  0
   -9.3949    2.7743  -22.3315 H   0  0  0  0  0  0  0  0  0  0  0  0
   -6.8184    2.5258  -21.4781 H   0  0  0  0  0  0  0  0  0  0  0  0
   -6.7867    4.0987  -22.3370 H   0  0  0  0  0  0  0  0  0  0  0  0
   -7.8965    3.8928  -20.9858 H   0  0  0  0  0  0  0  0  0  0  0  0
  1  2  1  0
  2  3  1  0
  3  4  2  0
  3  5  1  0
  5  6  1  0
  6  7  1  0
  8  7  1  6
  8  9  1  0
  9 10  2  0
  9 11  1  0
 11 12  1  0
 12 13  2  0
 13 14  1  0
 14 15  2  0
 15 16  1  0
 16 17  2  0
 17 18  1  0
 18 19  2  0
 19 20  1  0
 20 21  2  0
 20 22  1  0
 19 23  1  0
 18 24  1  0
 17 25  1  0
 15 26  1  0
 13 27  1  0
 11 28  1  0
 28 29  1  0
 29 30  1  0
 30 31  1  0
 31 32  1  0
 32 33  2  0
 33 34  1  0
 34 35  2  0
 35 36  1  0
 36 37  1  0
 37 38  1  0
 37 39  1  0
 37 40  1  0
 36 41  2  0
 34 42  1  0
 33 43  1  0
 31 44  1  0
 30 45  1  0
 30 46  1  0
 29 47  1  1
 28 48  1  0
 28 49  1  0
  8 50  1  0
 50 51  2  0
 51 52  1  0
 52 53  1  0
 52 54  2  0
 54 55  1  0
 55 56  2  0
 56 57  1  0
 57 58  2  0
 55 59  1  0
 54 60  1  0
 51 61  1  0
  7 62  1  0
  7 63  1  0
  5 64  1  0
  5 65  1  0
  2 66  1  0
  1 67  1  0
  1 68  1  0
  1 69  1  0
 57  6  1  0
 29  8  1  0
 41 32  1  0
 56 50  1  0
 21 12  1  0
 21 16  1  0
M  END
>  <cnnaffinities>  (14) 
[6.09462]

>  <score>  (14) 
6.09462

>  <index>  (14) 
13

>  <Smiles>  (14) 
C(N(C(=O)C(N1C([C@@]2(C(=O)N(c3c(nc(c4c(c(c(c(c34)[H])[H])[H])[H])[H])[H])C([C@@]2(C(N(c2c(c(nc(C([H])([H])[H])n2)[H])[H])[H])([H])[H])[H])([H])[H])c2c(c(Cl)c(c(c2C1=O)[H])[H])[H])([H])[H])([H])[H])[H])([H])([H])[H]

>  <h>  (14) 
<NA>

>  <Training>  (14) 
True

>  <Success>  (14) 
True

>  <enamine_searched>  (14) 
False

>  <enamine_id>  (14) 
nan

$$$$

     RDKit          3D

 73 78  0  0  0  0  0  0  0  0999 V2000
   -7.9434   -3.7518  -24.0037 C   0  0  0  0  0  0  0  0  0  0  0  0
   -8.2947   -2.8769  -22.7971 C   0  0  1  0  0  0  0  0  0  0  0  0
   -7.0981   -2.6558  -21.8476 C   0  0  0  0  0  0  0  0  0  0  0  0
   -7.4061   -1.3956  -21.1975 N   0  0  0  0  0  0  0  0  0  0  0  0
   -6.6053   -0.8152  -20.1751 C   0  0  0  0  0  0  0  0  0  0  0  0
   -6.9019   -1.0543  -18.8596 C   0  0  0  0  0  0  0  0  0  0  0  0
   -6.1966   -0.5624  -17.8110 N   0  0  0  0  0  0  0  0  0  0  0  0
   -5.1689    0.2066  -18.0791 C   0  0  0  0  0  0  0  0  0  0  0  0
   -4.7426    0.5408  -19.3969 C   0  0  0  0  0  0  0  0  0  0  0  0
   -3.6177    1.3794  -19.6376 C   0  0  0  0  0  0  0  0  0  0  0  0
   -3.2379    1.6807  -20.9164 C   0  0  0  0  0  0  0  0  0  0  0  0
   -3.9689    1.1661  -22.0093 C   0  0  0  0  0  0  0  0  0  0  0  0
   -5.0490    0.3430  -21.8024 C   0  0  0  0  0  0  0  0  0  0  0  0
   -5.4791    0.0146  -20.4856 C   0  0  0  0  0  0  0  0  0  0  0  0
   -5.5674   -0.0811  -22.6559 H   0  0  0  0  0  0  0  0  0  0  0  0
   -3.6558    1.4031  -23.0235 H   0  0  0  0  0  0  0  0  0  0  0  0
   -2.3729    2.3117  -21.1002 H   0  0  0  0  0  0  0  0  0  0  0  0
   -3.0783    1.7781  -18.7827 H   0  0  0  0  0  0  0  0  0  0  0  0
   -4.6186    0.6138  -17.2297 H   0  0  0  0  0  0  0  0  0  0  0  0
   -7.7564   -1.6762  -18.6012 H   0  0  0  0  0  0  0  0  0  0  0  0
   -8.3885   -0.6671  -21.8297 C   0  0  0  0  0  0  0  0  0  0  0  0
   -8.8037    0.4006  -21.4295 O   0  0  0  0  0  0  0  0  0  0  0  0
   -8.8377   -1.4454  -23.0990 C   0  0  1  0  0  0  0  0  0  0  0  0
   -8.1511   -0.8434  -24.3577 C   0  0  0  0  0  0  0  0  0  0  0  0
   -8.6010    0.5052  -24.6271 N   0  0  0  0  0  0  0  0  0  0  0  0
   -7.6418    1.5699  -24.8899 C   0  0  0  0  0  0  0  0  0  0  0  0
   -7.5153    2.5178  -23.6941 C   0  0  0  0  0  0  0  0  0  0  0  0
   -6.4233    3.5554  -23.8572 N   0  0  0  0  0  4  0  0  0  0  0  0
   -6.7541    4.6766  -24.8357 C   0  0  0  0  0  0  0  0  0  0  0  0
   -7.7574    5.6770  -24.2557 C   0  0  0  0  0  0  0  0  0  0  0  0
   -7.3520    6.1574  -22.9362 N   0  0  0  0  0  0  0  0  0  0  0  0
   -6.5509    7.6024  -22.8288 S   0  0  0  0  0  0  0  0  0  0  0  0
   -6.0441    7.6944  -21.4749 O   0  0  0  0  0  0  0  0  0  0  0  0
   -7.4140    8.6178  -23.4035 O   0  0  0  0  0  0  0  0  0  0  0  0
   -5.1447    7.5229  -23.9301 C   0  0  0  0  0  0  0  0  0  0  0  0
   -5.5140    7.4980  -24.9605 H   0  0  0  0  0  0  0  0  0  0  0  0
   -4.5139    6.6650  -23.6871 H   0  0  0  0  0  0  0  0  0  0  0  0
   -4.6086    8.4615  -23.7563 H   0  0  0  0  0  0  0  0  0  0  0  0
   -7.0431    5.0970  -21.9735 C   0  0  0  0  0  0  0  0  0  0  0  0
   -5.9860    4.1521  -22.5308 C   0  0  0  0  0  0  0  0  0  0  0  0
   -5.0572    4.7013  -22.7072 H   0  0  0  0  0  0  0  0  0  0  0  0
   -5.7769    3.3331  -21.8376 H   0  0  0  0  0  0  0  0  0  0  0  0
   -7.9786    4.5576  -21.7910 H   0  0  0  0  0  0  0  0  0  0  0  0
   -6.7198    5.5617  -21.0439 H   0  0  0  0  0  0  0  0  0  0  0  0
   -8.7346    5.2031  -24.1254 H   0  0  0  0  0  0  0  0  0  0  0  0
   -7.8919    6.5378  -24.9141 H   0  0  0  0  0  0  0  0  0  0  0  0
   -7.1505    4.2438  -25.7530 H   0  0  0  0  0  0  0  0  0  0  0  0
   -5.8162    5.1823  -25.0784 H   0  0  0  0  0  0  0  0  0  0  0  0
   -5.5905    3.0533  -24.2186 H   0  0  0  0  0  0  0  0  0  0  0  0
   -7.2863    1.9441  -22.7919 H   0  0  0  0  0  0  0  0  0  0  0  0
   -8.4730    3.0194  -23.5398 H   0  0  0  0  0  0  0  0  0  0  0  0
   -6.6696    1.1080  -25.0964 H   0  0  0  0  0  0  0  0  0  0  0  0
   -7.9639    2.1117  -25.7828 H   0  0  0  0  0  0  0  0  0  0  0  0
   -9.9341    0.7925  -24.6601 C   0  0  0  0  0  0  0  0  0  0  0  0
  -10.3772    1.8274  -25.1457 O   0  0  0  0  0  0  0  0  0  0  0  0
  -10.8510   -0.2244  -24.0237 C   0  0  0  0  0  0  0  0  0  0  0  0
  -12.2279   -0.0176  -24.1070 C   0  0  0  0  0  0  0  0  0  0  0  0
  -13.1113   -0.9107  -23.5352 C   0  0  0  0  0  0  0  0  0  0  0  0
  -12.6068   -1.9529  -22.7589 C   0  0  0  0  0  0  0  0  0  0  0  0
  -13.7222   -2.9826  -21.9031 Cl  0  0  0  0  0  0  0  0  0  0  0  0
  -11.2440   -2.1395  -22.6054 C   0  0  0  0  0  0  0  0  0  0  0  0
  -10.3416   -1.3062  -23.2858 C   0  0  0  0  0  0  0  0  0  0  0  0
  -10.9030   -2.9093  -21.9185 H   0  0  0  0  0  0  0  0  0  0  0  0
  -14.1804   -0.7787  -23.6503 H   0  0  0  0  0  0  0  0  0  0  0  0
  -12.5889    0.8919  -24.5725 H   0  0  0  0  0  0  0  0  0  0  0  0
   -8.3773   -1.4951  -25.2164 H   0  0  0  0  0  0  0  0  0  0  0  0
   -7.0651   -0.8180  -24.2110 H   0  0  0  0  0  0  0  0  0  0  0  0
   -6.1520   -2.6033  -22.4102 H   0  0  0  0  0  0  0  0  0  0  0  0
   -6.9949   -3.4545  -21.1053 H   0  0  0  0  0  0  0  0  0  0  0  0
   -9.0727   -3.3796  -22.2174 H   0  0  0  0  0  0  0  0  0  0  0  0
   -7.0914   -3.3394  -24.5570 H   0  0  0  0  0  0  0  0  0  0  0  0
   -7.6638   -4.7616  -23.6863 H   0  0  0  0  0  0  0  0  0  0  0  0
   -8.7817   -3.8416  -24.7032 H   0  0  0  0  0  0  0  0  0  0  0  0
  1  2  1  0
  2  3  1  0
  3  4  1  0
  4  5  1  0
  5  6  2  0
  6  7  1  0
  7  8  2  0
  8  9  1  0
  9 10  2  0
 10 11  1  0
 11 12  2  0
 12 13  1  0
 13 14  2  0
 13 15  1  0
 12 16  1  0
 11 17  1  0
 10 18  1  0
  8 19  1  0
  6 20  1  0
  4 21  1  0
 21 22  2  0
 21 23  1  0
 23 24  1  6
 24 25  1  0
 25 26  1  0
 26 27  1  0
 27 28  1  0
 28 29  1  0
 29 30  1  0
 30 31  1  0
 31 32  1  0
 32 33  2  0
 32 34  2  0
 32 35  1  0
 35 36  1  0
 35 37  1  0
 35 38  1  0
 31 39  1  0
 39 40  1  0
 40 41  1  0
 40 42  1  0
 39 43  1  0
 39 44  1  0
 30 45  1  0
 30 46  1  0
 29 47  1  0
 29 48  1  0
 28 49  1  0
 27 50  1  0
 27 51  1  0
 26 52  1  0
 26 53  1  0
 25 54  1  0
 54 55  2  0
 54 56  1  0
 56 57  2  0
 57 58  1  0
 58 59  2  0
 59 60  1  0
 59 61  1  0
 61 62  2  0
 61 63  1  0
 58 64  1  0
 57 65  1  0
 24 66  1  0
 24 67  1  0
  3 68  1  0
  3 69  1  0
  2 70  1  1
  1 71  1  0
  1 72  1  0
  1 73  1  0
 23  2  1  0
 40 28  1  0
 62 56  1  0
 14  5  1  0
 62 23  1  0
 14  9  1  0
M  CHG  1  28   1
M  END
>  <cnnaffinities>  (15) 
[6.42726]

>  <score>  (15) 
6.42726

>  <index>  (15) 
14

>  <Smiles>  (15) 
C([C@]1(C(N(c2c(nc(c3c(c(c(c(c23)[H])[H])[H])[H])[H])[H])C(=O)[C@]21C(N(C(C([N+]1(C(C(N(S(=O)(=O)C([H])([H])[H])C(C1([H])[H])([H])[H])([H])[H])([H])[H])[H])([H])[H])([H])[H])C(=O)c1c(c(c(Cl)c(c21)[H])[H])[H])([H])[H])([H])[H])[H])([H])([H])[H]

>  <h>  (15) 
<NA>

>  <Training>  (15) 
True

>  <Success>  (15) 
True

>  <enamine_searched>  (15) 
False

>  <enamine_id>  (15) 
nan

$$$$

     RDKit          3D

 63 68  0  0  0  0  0  0  0  0999 V2000
   -7.3123    3.3031  -22.0613 C   0  0  0  0  0  0  0  0  0  0  0  0
   -8.3961    2.7245  -22.8396 N   0  0  0  0  0  0  0  0  0  0  0  0
   -8.1154    1.9558  -23.9265 C   0  0  0  0  0  0  0  0  0  0  0  0
   -6.9727    1.6936  -24.2802 O   0  0  0  0  0  0  0  0  0  0  0  0
   -9.3356    1.4484  -24.7075 C   0  0  0  0  0  0  0  0  0  0  0  0
   -9.8836    0.2241  -24.1454 N   0  0  0  0  0  0  0  0  0  0  0  0
   -9.0558   -0.9638  -24.0330 C   0  0  0  0  0  0  0  0  0  0  0  0
   -9.2833   -1.7235  -22.6901 C   0  0  2  0  0  0  0  0  0  0  0  0
   -8.7020   -0.8569  -21.5343 C   0  0  0  0  0  0  0  0  0  0  0  0
   -9.2066    0.1249  -21.0330 O   0  0  0  0  0  0  0  0  0  0  0  0
   -7.4636   -1.3602  -21.1877 N   0  0  0  0  0  0  0  0  0  0  0  0
   -6.6764   -0.7836  -20.1607 C   0  0  0  0  0  0  0  0  0  0  0  0
   -6.9711   -1.0478  -18.8459 C   0  0  0  0  0  0  0  0  0  0  0  0
   -6.2442   -0.5913  -17.7988 N   0  0  0  0  0  0  0  0  0  0  0  0
   -5.2053    0.1643  -18.0603 C   0  0  0  0  0  0  0  0  0  0  0  0
   -4.7853    0.5199  -19.3728 C   0  0  0  0  0  0  0  0  0  0  0  0
   -3.6639    1.3609  -19.6103 C   0  0  0  0  0  0  0  0  0  0  0  0
   -3.3149    1.7070  -20.8864 C   0  0  0  0  0  0  0  0  0  0  0  0
   -4.0704    1.2356  -21.9820 C   0  0  0  0  0  0  0  0  0  0  0  0
   -5.1600    0.4202  -21.7790 C   0  0  0  0  0  0  0  0  0  0  0  0
   -5.5436    0.0355  -20.4657 C   0  0  0  0  0  0  0  0  0  0  0  0
   -5.7670    0.1218  -22.6271 H   0  0  0  0  0  0  0  0  0  0  0  0
   -3.7923    1.5201  -22.9927 H   0  0  0  0  0  0  0  0  0  0  0  0
   -2.4657    2.3601  -21.0692 H   0  0  0  0  0  0  0  0  0  0  0  0
   -3.1179    1.7463  -18.7533 H   0  0  0  0  0  0  0  0  0  0  0  0
   -4.6370    0.5401  -17.2086 H   0  0  0  0  0  0  0  0  0  0  0  0
   -7.8249   -1.6735  -18.5929 H   0  0  0  0  0  0  0  0  0  0  0  0
   -7.0437   -2.4973  -21.9771 C   0  0  0  0  0  0  0  0  0  0  0  0
   -8.3755   -2.9858  -22.5739 C   0  0  2  0  0  0  0  0  0  0  0  0
   -8.1721   -3.7851  -23.8641 C   0  0  0  0  0  0  0  0  0  0  0  0
   -7.4177   -5.0073  -23.6594 N   0  0  0  0  0  0  0  0  0  0  0  0
   -6.0793   -5.1810  -23.7651 C   0  0  0  0  0  0  0  0  0  0  0  0
   -5.8184   -6.4958  -23.4425 C   0  0  0  0  0  0  0  0  0  0  0  0
   -7.0898   -7.0299  -23.1426 C   0  0  0  0  0  0  0  0  0  0  0  0
   -8.0445   -6.1190  -23.2678 N   0  0  0  0  0  0  0  0  0  0  0  0
   -7.3733   -8.0333  -22.8407 H   0  0  0  0  0  0  0  0  0  0  0  0
   -4.8670   -7.0107  -23.4477 H   0  0  0  0  0  0  0  0  0  0  0  0
   -5.4350   -4.3573  -24.0478 H   0  0  0  0  0  0  0  0  0  0  0  0
   -7.6233   -3.1840  -24.5953 H   0  0  0  0  0  0  0  0  0  0  0  0
   -9.1404   -4.0619  -24.2873 H   0  0  0  0  0  0  0  0  0  0  0  0
   -8.8339   -3.6460  -21.8337 H   0  0  0  0  0  0  0  0  0  0  0  0
   -6.5581   -3.2574  -21.3562 H   0  0  0  0  0  0  0  0  0  0  0  0
   -6.3200   -2.2049  -22.7597 H   0  0  0  0  0  0  0  0  0  0  0  0
  -10.7882   -1.9395  -22.5385 C   0  0  0  0  0  0  0  0  0  0  0  0
  -11.3432   -2.9475  -21.7335 C   0  0  0  0  0  0  0  0  0  0  0  0
  -12.7051   -2.9359  -21.4700 C   0  0  0  0  0  0  0  0  0  0  0  0
  -13.4177   -3.9735  -20.2883 Cl  0  0  0  0  0  0  0  0  0  0  0  0
  -13.5812   -2.0412  -22.0731 C   0  0  0  0  0  0  0  0  0  0  0  0
  -13.0560   -1.0912  -22.9091 C   0  0  0  0  0  0  0  0  0  0  0  0
  -11.6808   -1.0111  -23.1004 C   0  0  0  0  0  0  0  0  0  0  0  0
  -11.2145    0.1826  -23.8690 C   0  0  0  0  0  0  0  0  0  0  0  0
  -11.9872    1.0757  -24.1965 O   0  0  0  0  0  0  0  0  0  0  0  0
  -13.6795   -0.3488  -23.3905 H   0  0  0  0  0  0  0  0  0  0  0  0
  -14.6411   -2.0940  -21.8565 H   0  0  0  0  0  0  0  0  0  0  0  0
  -10.7294   -3.7293  -21.2959 H   0  0  0  0  0  0  0  0  0  0  0  0
   -8.0199   -0.6282  -24.1035 H   0  0  0  0  0  0  0  0  0  0  0  0
   -9.2675   -1.6332  -24.8785 H   0  0  0  0  0  0  0  0  0  0  0  0
  -10.1588    2.1712  -24.6935 H   0  0  0  0  0  0  0  0  0  0  0  0
   -9.0275    1.3009  -25.7499 H   0  0  0  0  0  0  0  0  0  0  0  0
   -9.2919    2.5995  -22.3799 H   0  0  0  0  0  0  0  0  0  0  0  0
   -7.7117    4.0565  -21.3721 H   0  0  0  0  0  0  0  0  0  0  0  0
   -6.6071    3.7753  -22.7520 H   0  0  0  0  0  0  0  0  0  0  0  0
   -6.7523    2.5357  -21.5075 H   0  0  0  0  0  0  0  0  0  0  0  0
  1  2  1  0
  2  3  1  0
  3  4  2  0
  3  5  1  0
  5  6  1  0
  6  7  1  0
  8  7  1  6
  8  9  1  0
  9 10  2  0
  9 11  1  0
 11 12  1  0
 12 13  2  0
 13 14  1  0
 14 15  2  0
 15 16  1  0
 16 17  2  0
 17 18  1  0
 18 19  2  0
 19 20  1  0
 20 21  2  0
 20 22  1  0
 19 23  1  0
 18 24  1  0
 17 25  1  0
 15 26  1  0
 13 27  1  0
 11 28  1  0
 28 29  1  0
 29 30  1  0
 30 31  1  0
 31 32  1  0
 32 33  2  0
 33 34  1  0
 34 35  2  0
 34 36  1  0
 33 37  1  0
 32 38  1  0
 30 39  1  0
 30 40  1  0
 29 41  1  1
 28 42  1  0
 28 43  1  0
  8 44  1  0
 44 45  2  0
 45 46  1  0
 46 47  1  0
 46 48  2  0
 48 49  1  0
 49 50  2  0
 50 51  1  0
 51 52  2  0
 49 53  1  0
 48 54  1  0
 45 55  1  0
  7 56  1  0
  7 57  1  0
  5 58  1  0
  5 59  1  0
  2 60  1  0
  1 61  1  0
  1 62  1  0
  1 63  1  0
 51  6  1  0
 29  8  1  0
 35 31  1  0
 50 44  1  0
 21 12  1  0
 21 16  1  0
M  END
>  <cnnaffinities>  (16) 
[6.95376, 6.41128, 6.3293]

>  <score>  (16) 
6.95376

>  <index>  (16) 
15

>  <Smiles>  (16) 
C(N(C(=O)C(N1C([C@@]2(C(=O)N(c3c(nc(c4c(c(c(c(c34)[H])[H])[H])[H])[H])[H])C([C@@]2(C(n2c(c(c(n2)[H])[H])[H])([H])[H])[H])([H])[H])c2c(c(Cl)c(c(c2C1=O)[H])[H])[H])([H])[H])([H])[H])[H])([H])([H])[H]

>  <h>  (16) 
<NA>

>  <Training>  (16) 
True

>  <Success>  (16) 
True

>  <enamine_searched>  (16) 
False

>  <enamine_id>  (16) 
nan

$$$$

     RDKit          3D

 61 66  0  0  0  0  0  0  0  0999 V2000
  -12.2613    3.8849  -21.6169 C   0  0  0  0  0  0  0  0  0  0  0  0
  -12.2647    2.7674  -22.5405 N   0  0  0  0  0  0  0  0  0  0  0  0
  -11.1548    2.4052  -23.2386 C   0  0  0  0  0  0  0  0  0  0  0  0
  -10.0691    2.9501  -23.1327 O   0  0  0  0  0  0  0  0  0  0  0  0
  -11.4183    1.2996  -24.2698 C   0  0  0  0  0  0  0  0  0  0  0  0
  -11.3272   -0.0360  -23.7104 N   0  0  0  0  0  0  0  0  0  0  0  0
  -10.1418   -0.8680  -23.9590 C   0  0  0  0  0  0  0  0  0  0  0  0
   -9.7066   -1.7226  -22.7253 C   0  0  2  0  0  0  0  0  0  0  0  0
   -9.0816   -0.7978  -21.6423 C   0  0  0  0  0  0  0  0  0  0  0  0
   -9.5718    0.2072  -21.1784 O   0  0  0  0  0  0  0  0  0  0  0  0
   -7.8498   -1.2977  -21.2800 N   0  0  0  0  0  0  0  0  0  0  0  0
   -7.1003   -0.7319  -20.2156 C   0  0  0  0  0  0  0  0  0  0  0  0
   -7.4752   -0.9421  -18.9134 C   0  0  0  0  0  0  0  0  0  0  0  0
   -6.7983   -0.4719  -17.8353 N   0  0  0  0  0  0  0  0  0  0  0  0
   -5.7244    0.2462  -18.0510 C   0  0  0  0  0  0  0  0  0  0  0  0
   -5.2293    0.5560  -19.3481 C   0  0  0  0  0  0  0  0  0  0  0  0
   -4.0829    1.3736  -19.5275 C   0  0  0  0  0  0  0  0  0  0  0  0
   -3.6173    1.6329  -20.7861 C   0  0  0  0  0  0  0  0  0  0  0  0
   -4.2776    1.0961  -21.9144 C   0  0  0  0  0  0  0  0  0  0  0  0
   -5.3964    0.3134  -21.7657 C   0  0  0  0  0  0  0  0  0  0  0  0
   -5.9140    0.0337  -20.4713 C   0  0  0  0  0  0  0  0  0  0  0  0
   -5.8971   -0.0943  -22.6394 H   0  0  0  0  0  0  0  0  0  0  0  0
   -3.8842    1.3026  -22.9050 H   0  0  0  0  0  0  0  0  0  0  0  0
   -2.7411    2.2596  -20.9259 H   0  0  0  0  0  0  0  0  0  0  0  0
   -3.5984    1.7875  -18.6444 H   0  0  0  0  0  0  0  0  0  0  0  0
   -5.1866    0.6199  -17.1764 H   0  0  0  0  0  0  0  0  0  0  0  0
   -8.3691   -1.5201  -18.6840 H   0  0  0  0  0  0  0  0  0  0  0  0
   -7.6044   -2.6293  -21.7900 C   0  0  0  0  0  0  0  0  0  0  0  0
   -8.5044   -2.6890  -23.0373 C   0  0  2  0  0  0  0  0  0  0  0  0
   -7.7088   -2.2897  -24.3010 C   0  0  0  0  0  0  0  0  0  0  0  0
   -6.6104   -3.2043  -24.5703 N   0  0  0  0  0  0  0  0  0  0  0  0
   -6.7919   -4.4421  -24.9950 N   0  0  0  0  0  0  0  0  0  0  0  0
   -5.5442   -4.8817  -25.0578 C   0  0  0  0  0  0  0  0  0  0  0  0
   -4.6459   -3.9467  -24.6834 N   0  0  0  0  0  0  0  0  0  0  0  0
   -5.3477   -2.8879  -24.3777 N   0  0  0  0  0  0  0  0  0  0  0  0
   -5.2800   -5.8795  -25.3794 H   0  0  0  0  0  0  0  0  0  0  0  0
   -8.3538   -2.3298  -25.1781 H   0  0  0  0  0  0  0  0  0  0  0  0
   -7.2744   -1.2906  -24.2034 H   0  0  0  0  0  0  0  0  0  0  0  0
   -8.8293   -3.7115  -23.2343 H   0  0  0  0  0  0  0  0  0  0  0  0
   -7.8865   -3.3956  -21.0585 H   0  0  0  0  0  0  0  0  0  0  0  0
   -6.5464   -2.7715  -22.0185 H   0  0  0  0  0  0  0  0  0  0  0  0
  -10.9937   -2.4307  -22.2167 C   0  0  0  0  0  0  0  0  0  0  0  0
  -11.0823   -3.5674  -21.5195 C   0  0  0  0  0  0  0  0  0  0  0  0
  -12.9429   -3.7385  -21.1039 C   0  0  0  0  0  0  0  0  0  0  0  0
  -12.5220   -5.2487  -19.1009 Cl  0  0  0  0  0  0  0  0  0  0  0  0
  -12.9777   -3.8121  -20.7621 C   0  0  0  0  0  0  0  0  0  0  0  0
  -13.4081   -2.3356  -21.6912 C   0  0  0  0  0  0  0  0  0  0  0  0
  -12.2984   -1.7628  -22.3796 C   0  0  0  0  0  0  0  0  0  0  0  0
  -12.4490   -0.5013  -23.0853 C   0  0  0  0  0  0  0  0  0  0  0  0
  -13.5070    0.1285  -23.1061 O   0  0  0  0  0  0  0  0  0  0  0  0
  -14.3435   -2.4273  -22.2151 H   0  0  0  0  0  0  0  0  0  0  0  0
  -12.9752   -3.1928  -19.8719 H   0  0  0  0  0  0  0  0  0  0  0  0
  -10.3460   -4.3454  -21.4044 H   0  0  0  0  0  0  0  0  0  0  0  0
   -9.3428   -0.2003  -24.2674 H   0  0  0  0  0  0  0  0  0  0  0  0
  -10.3576   -1.5601  -24.7797 H   0  0  0  0  0  0  0  0  0  0  0  0
  -12.4295    1.4394  -24.6568 H   0  0  0  0  0  0  0  0  0  0  0  0
  -10.6951    1.4076  -25.0818 H   0  0  0  0  0  0  0  0  0  0  0  0
  -13.0977    2.1936  -22.6060 H   0  0  0  0  0  0  0  0  0  0  0  0
  -13.2201    4.4093  -21.6866 H   0  0  0  0  0  0  0  0  0  0  0  0
  -11.4631    4.5717  -21.8962 H   0  0  0  0  0  0  0  0  0  0  0  0
  -12.0989    3.5534  -20.5852 H   0  0  0  0  0  0  0  0  0  0  0  0
  1  2  1  0
  2  3  1  0
  3  4  2  0
  3  5  1  0
  5  6  1  0
  6  7  1  0
  8  7  1  6
  8  9  1  0
  9 10  2  0
  9 11  1  0
 11 12  1  0
 12 13  2  0
 13 14  1  0
 14 15  2  0
 15 16  1  0
 16 17  2  0
 17 18  1  0
 18 19  2  0
 19 20  1  0
 20 21  2  0
 20 22  1  0
 19 23  1  0
 18 24  1  0
 17 25  1  0
 15 26  1  0
 13 27  1  0
 11 28  1  0
 28 29  1  0
 29 30  1  0
 30 31  1  0
 31 32  1  0
 32 33  2  0
 33 34  1  0
 34 35  2  0
 33 36  1  0
 30 37  1  0
 30 38  1  0
 29 39  1  6
 28 40  1  0
 28 41  1  0
  8 42  1  0
 42 43  2  0
 43 44  1  0
 44 45  1  0
 44 46  2  0
 46 47  1  0
 47 48  2  0
 48 49  1  0
 49 50  2  0
 47 51  1  0
 46 52  1  0
 43 53  1  0
  7 54  1  0
  7 55  1  0
  5 56  1  0
  5 57  1  0
  2 58  1  0
  1 59  1  0
  1 60  1  0
  1 61  1  0
 49  6  1  0
 29  8  1  0
 35 31  1  0
 48 42  1  0
 21 12  1  0
 21 16  1  0
M  END
>  <cnnaffinities>  (17) 
[6.83718]

>  <score>  (17) 
6.83718

>  <index>  (17) 
16

>  <Smiles>  (17) 
C(N(C(=O)C(N1C([C@@]2(C(=O)N(c3c(nc(c4c(c(c(c(c34)[H])[H])[H])[H])[H])[H])C([C@@]2(C(n2nc(nn2)[H])([H])[H])[H])([H])[H])c2c(c(Cl)c(c(c2C1=O)[H])[H])[H])([H])[H])([H])[H])[H])([H])([H])[H]

>  <h>  (17) 
<NA>

>  <Training>  (17) 
True

>  <Success>  (17) 
True

>  <enamine_searched>  (17) 
False

>  <enamine_id>  (17) 
nan

$$$$

     RDKit          3D

 38 41  0  0  0  0  0  0  0  0999 V2000
   -9.3485   -4.9424  -25.6884 C   0  0  0  0  0  0  0  0  0  0  0  0
   -9.3388   -4.1942  -24.3522 C   0  0  2  0  0  0  0  0  0  0  0  0
  -10.3263   -3.0311  -24.3614 C   0  0  0  0  0  0  0  0  0  0  0  0
  -10.4091   -2.3432  -23.0026 C   0  0  0  0  0  0  0  0  0  0  0  0
   -9.0761   -2.1140  -22.4579 C   0  0  0  0  0  0  0  0  0  0  0  0
   -8.7142   -1.1902  -21.4356 C   0  0  0  0  0  0  0  0  0  0  0  0
   -9.3808   -0.3258  -20.9125 O   0  0  0  0  0  1  0  0  0  0  0  0
   -7.3406   -1.4720  -21.1972 N   0  0  0  0  0  0  0  0  0  0  0  0
   -6.5707   -0.8453  -20.1822 C   0  0  0  0  0  0  0  0  0  0  0  0
   -6.8886   -1.0541  -18.8653 C   0  0  0  0  0  0  0  0  0  0  0  0
   -6.1913   -0.5513  -17.8165 N   0  0  0  0  0  0  0  0  0  0  0  0
   -5.1587    0.2118  -18.0763 C   0  0  0  0  0  0  0  0  0  0  0  0
   -4.7281    0.5328  -19.3906 C   0  0  0  0  0  0  0  0  0  0  0  0
   -3.6019    1.3686  -19.6252 C   0  0  0  0  0  0  0  0  0  0  0  0
   -3.2326    1.6812  -20.9039 C   0  0  0  0  0  0  0  0  0  0  0  0
   -3.9783    1.1846  -21.9957 C   0  0  0  0  0  0  0  0  0  0  0  0
   -5.0580    0.3635  -21.7965 C   0  0  0  0  0  0  0  0  0  0  0  0
   -5.4580    0.0044  -20.4831 C   0  0  0  0  0  0  0  0  0  0  0  0
   -5.6074   -0.0307  -22.6440 H   0  0  0  0  0  0  0  0  0  0  0  0
   -3.6624    1.4169  -23.0086 H   0  0  0  0  0  0  0  0  0  0  0  0
   -2.3688    2.3143  -21.0953 H   0  0  0  0  0  0  0  0  0  0  0  0
   -3.0593    1.7708  -18.7733 H   0  0  0  0  0  0  0  0  0  0  0  0
   -4.6111    0.6189  -17.2224 H   0  0  0  0  0  0  0  0  0  0  0  0
   -7.7403   -1.6730  -18.5966 H   0  0  0  0  0  0  0  0  0  0  0  0
   -6.8603   -2.4214  -22.1191 C   0  0  0  0  0  0  0  0  0  0  0  0
   -5.7274   -2.8232  -22.2446 O   0  0  0  0  0  0  0  0  0  0  0  0
   -7.9726   -2.7844  -22.8638 N   0  0  0  0  0  0  0  0  0  0  0  0
   -7.9398   -3.6832  -24.0066 C   0  0  0  0  0  0  0  0  0  0  0  0
   -7.2727   -4.5009  -23.7553 H   0  0  0  0  0  0  0  0  0  0  0  0
   -7.5084   -3.1771  -24.8744 H   0  0  0  0  0  0  0  0  0  0  0  0
  -10.9623   -1.4002  -23.0741 H   0  0  0  0  0  0  0  0  0  0  0  0
  -11.0005   -2.9638  -22.3116 H   0  0  0  0  0  0  0  0  0  0  0  0
  -10.0336   -2.3154  -25.1400 H   0  0  0  0  0  0  0  0  0  0  0  0
  -11.3271   -3.3946  -24.5827 H   0  0  0  0  0  0  0  0  0  0  0  0
   -9.6513   -4.9006  -23.5726 H   0  0  0  0  0  0  0  0  0  0  0  0
  -10.3430   -5.3449  -25.9197 H   0  0  0  0  0  0  0  0  0  0  0  0
   -8.6493   -5.7866  -25.6928 H   0  0  0  0  0  0  0  0  0  0  0  0
   -9.0730   -4.2813  -26.5197 H   0  0  0  0  0  0  0  0  0  0  0  0
  1  2  1  0
  2  3  1  0
  3  4  1  0
  4  5  1  0
  5  6  2  0
  6  7  1  0
  6  8  1  0
  8  9  1  0
  9 10  2  0
 10 11  1  0
 11 12  2  0
 12 13  1  0
 13 14  2  0
 14 15  1  0
 15 16  2  0
 16 17  1  0
 17 18  2  0
 17 19  1  0
 16 20  1  0
 15 21  1  0
 14 22  1  0
 12 23  1  0
 10 24  1  0
  8 25  1  0
 25 26  2  0
 25 27  1  0
 27 28  1  0
 28 29  1  0
 28 30  1  0
  4 31  1  0
  4 32  1  0
  3 33  1  0
  3 34  1  0
  2 35  1  1
  1 36  1  0
  1 37  1  0
  1 38  1  0
 28  2  1  0
 27  5  1  0
 18  9  1  0
 18 13  1  0
M  CHG  1   7  -1
M  END
>  <cnnaffinities>  (18) 
[4.81015, 4.42659, 4.70493]

>  <score>  (18) 
4.81015

>  <index>  (18) 
17

>  <Smiles>  (18) 
C([C@@]1(C(C(c2c([O-])n(c3c(nc(c4c(c(c(c(c34)[H])[H])[H])[H])[H])[H])c(=O)n2C1([H])[H])([H])[H])([H])[H])[H])([H])([H])[H]

>  <h>  (18) 
<NA>

>  <Training>  (18) 
True

>  <Success>  (18) 
True

>  <enamine_searched>  (18) 
False

>  <enamine_id>  (18) 
nan

$$$$

     RDKit          3D

 56 61  0  0  0  0  0  0  0  0999 V2000
  -10.3746   -0.9638  -23.3941 C   0  0  0  0  0  0  0  0  0  0  0  0
   -8.9616   -1.3642  -22.9881 C   0  0  1  0  0  0  0  0  0  0  0  0
   -8.3717   -0.4694  -21.8888 C   0  0  0  0  0  0  0  0  0  0  0  0
   -7.3982   -1.3363  -21.2462 N   0  0  0  0  0  0  0  0  0  0  0  0
   -6.5914   -0.8756  -20.1857 C   0  0  0  0  0  0  0  0  0  0  0  0
   -6.8886   -1.1831  -18.8838 C   0  0  0  0  0  0  0  0  0  0  0  0
   -6.2311   -0.6584  -17.8196 N   0  0  0  0  0  0  0  0  0  0  0  0
   -5.2408    0.1677  -18.0610 C   0  0  0  0  0  0  0  0  0  0  0  0
   -4.8051    0.5364  -19.3669 C   0  0  0  0  0  0  0  0  0  0  0  0
   -3.7004    1.4000  -19.5958 C   0  0  0  0  0  0  0  0  0  0  0  0
   -3.3481    1.7455  -20.8719 C   0  0  0  0  0  0  0  0  0  0  0  0
   -4.0720    1.2434  -21.9779 C   0  0  0  0  0  0  0  0  0  0  0  0
   -5.1217    0.3821  -21.7830 C   0  0  0  0  0  0  0  0  0  0  0  0
   -5.5126    0.0149  -20.4693 C   0  0  0  0  0  0  0  0  0  0  0  0
   -5.6535   -0.0405  -22.6287 H   0  0  0  0  0  0  0  0  0  0  0  0
   -3.7811    1.5215  -22.9868 H   0  0  0  0  0  0  0  0  0  0  0  0
   -2.5023    2.4037  -21.0503 H   0  0  0  0  0  0  0  0  0  0  0  0
   -3.1480    1.7775  -18.7389 H   0  0  0  0  0  0  0  0  0  0  0  0
   -4.7236    0.5859  -17.1969 H   0  0  0  0  0  0  0  0  0  0  0  0
   -7.7006   -1.8710  -18.6523 H   0  0  0  0  0  0  0  0  0  0  0  0
   -7.6376   -2.6755  -21.4535 C   0  0  0  0  0  0  0  0  0  0  0  0
   -6.9973   -3.5755  -20.9400 O   0  0  0  0  0  0  0  0  0  0  0  0
   -8.8099   -2.8223  -22.4280 C   0  0  1  0  0  0  0  0  0  0  0  0
  -10.0424   -3.2437  -21.5869 C   0  0  0  0  0  0  0  0  0  0  0  0
  -11.1537   -3.7112  -22.4034 N   0  0  0  0  0  0  0  0  0  0  0  0
  -12.5318   -3.6333  -21.9145 C   0  0  0  0  0  0  0  0  0  0  0  0
  -13.3683   -2.5160  -22.4753 C   0  0  0  0  0  0  0  0  0  0  0  0
  -14.0552   -2.4764  -23.7110 C   0  0  0  0  0  0  0  0  0  0  0  0
  -14.7321   -1.2859  -23.6966 C   0  0  0  0  0  0  0  0  0  0  0  0
  -14.4430   -0.6966  -22.5169 N   0  0  0  0  0  0  0  0  0  0  0  0
  -13.6162   -1.4275  -21.7586 N   0  0  0  0  0  0  0  0  0  0  0  0
  -14.8150    0.1464  -22.1109 H   0  0  0  0  0  0  0  0  0  0  0  0
  -15.3637   -0.8104  -24.4211 H   0  0  0  0  0  0  0  0  0  0  0  0
  -14.0960   -3.2397  -24.4724 H   0  0  0  0  0  0  0  0  0  0  0  0
  -13.0168   -4.5615  -22.2349 H   0  0  0  0  0  0  0  0  0  0  0  0
  -12.5380   -3.5510  -20.8234 H   0  0  0  0  0  0  0  0  0  0  0  0
  -10.9593   -4.4900  -23.5112 C   0  0  0  0  0  0  0  0  0  0  0  0
  -11.9006   -5.0025  -24.1007 O   0  0  0  0  0  0  0  0  0  0  0  0
   -9.5533   -4.6792  -23.9700 C   0  0  0  0  0  0  0  0  0  0  0  0
   -9.3088   -5.6789  -24.9082 C   0  0  0  0  0  0  0  0  0  0  0  0
   -8.0343   -5.8986  -25.3910 C   0  0  0  0  0  0  0  0  0  0  0  0
   -7.0164   -5.0707  -24.9349 C   0  0  0  0  0  0  0  0  0  0  0  0
   -5.7763   -5.2588  -25.4128 F   0  0  0  0  0  0  0  0  0  0  0  0
   -7.2295   -4.0855  -23.9889 C   0  0  0  0  0  0  0  0  0  0  0  0
   -8.5205   -3.8789  -23.4782 C   0  0  0  0  0  0  0  0  0  0  0  0
   -6.3729   -3.5391  -23.6129 H   0  0  0  0  0  0  0  0  0  0  0  0
   -7.8176   -6.7082  -26.0777 H   0  0  0  0  0  0  0  0  0  0  0  0
  -10.1504   -6.2817  -25.2309 H   0  0  0  0  0  0  0  0  0  0  0  0
   -9.7225   -4.0298  -20.8952 H   0  0  0  0  0  0  0  0  0  0  0  0
  -10.3833   -2.3895  -20.9870 H   0  0  0  0  0  0  0  0  0  0  0  0
   -9.1408   -0.1405  -21.1707 H   0  0  0  0  0  0  0  0  0  0  0  0
   -7.8990    0.4389  -22.2740 H   0  0  0  0  0  0  0  0  0  0  0  0
   -8.2963   -1.3128  -23.8600 H   0  0  0  0  0  0  0  0  0  0  0  0
  -10.7936   -1.7069  -24.0777 H   0  0  0  0  0  0  0  0  0  0  0  0
  -11.0308   -0.9117  -22.5192 H   0  0  0  0  0  0  0  0  0  0  0  0
  -10.3994    0.0139  -23.8832 H   0  0  0  0  0  0  0  0  0  0  0  0
  1  2  1  0
  2  3  1  0
  3  4  1  0
  4  5  1  0
  5  6  2  0
  6  7  1  0
  7  8  2  0
  8  9  1  0
  9 10  2  0
 10 11  1  0
 11 12  2  0
 12 13  1  0
 13 14  2  0
 13 15  1  0
 12 16  1  0
 11 17  1  0
 10 18  1  0
  8 19  1  0
  6 20  1  0
  4 21  1  0
 21 22  2  0
 21 23  1  0
 23 24  1  1
 24 25  1  0
 25 26  1  0
 26 27  1  0
 27 28  1  0
 28 29  2  0
 29 30  1  0
 30 31  1  0
 30 32  1  0
 29 33  1  0
 28 34  1  0
 26 35  1  0
 26 36  1  0
 25 37  1  0
 37 38  2  0
 37 39  1  0
 39 40  2  0
 40 41  1  0
 41 42  2  0
 42 43  1  0
 42 44  1  0
 44 45  2  0
 44 46  1  0
 41 47  1  0
 40 48  1  0
 24 49  1  0
 24 50  1  0
  3 51  1  0
  3 52  1  0
  2 53  1  6
  1 54  1  0
  1 55  1  0
  1 56  1  0
 23  2  1  0
 31 27  2  0
 45 39  1  0
 14  5  1  0
 45 23  1  0
 14  9  1  0
M  END
>  <cnnaffinities>  (19) 
[6.54028]

>  <score>  (19) 
6.54028

>  <index>  (19) 
18

>  <Smiles>  (19) 
C([C@]1(C(N(c2c(nc(c3c(c(c(c(c23)[H])[H])[H])[H])[H])[H])C(=O)[C@]21C(N(C(c1c(c(n(n1)[H])[H])[H])([H])[H])C(=O)c1c(c(c(F)c(c21)[H])[H])[H])([H])[H])([H])[H])[H])([H])([H])[H]

>  <h>  (19) 
<NA>

>  <Training>  (19) 
True

>  <Success>  (19) 
True

>  <enamine_searched>  (19) 
False

>  <enamine_id>  (19) 
nan

$$$$

     RDKit          3D

 42 45  0  0  0  0  0  0  0  0999 V2000
   -9.1436   -0.0640  -20.7230 O   0  0  0  0  0  0  0  0  0  0  0  0
   -8.6542   -0.9065  -21.4501 C   0  0  0  0  0  0  0  0  0  0  0  0
   -9.3663   -1.5023  -22.6768 C   0  0  1  0  0  0  0  0  0  0  0  0
  -10.4377   -0.5574  -23.1872 C   0  0  0  0  0  0  0  0  0  0  0  0
  -10.0997    0.7545  -23.5100 C   0  0  0  0  0  0  0  0  0  0  0  0
  -11.0726    1.6310  -23.9554 C   0  0  0  0  0  0  0  0  0  0  0  0
  -12.4028    1.2480  -24.0549 C   0  0  0  0  0  0  0  0  0  0  0  0
  -13.5515    2.5085  -24.3601 Cl  0  0  0  0  0  0  0  0  0  0  0  0
  -12.7303   -0.0931  -23.8433 C   0  0  0  0  0  0  0  0  0  0  0  0
  -14.3294   -0.6889  -24.1090 Cl  0  0  0  0  0  0  0  0  0  0  0  0
  -11.7484   -0.9835  -23.3996 C   0  0  0  0  0  0  0  0  0  0  0  0
  -12.0441   -2.0126  -23.1902 H   0  0  0  0  0  0  0  0  0  0  0  0
  -10.8321    2.6531  -24.2058 H   0  0  0  0  0  0  0  0  0  0  0  0
   -9.0862    1.1194  -23.3423 H   0  0  0  0  0  0  0  0  0  0  0  0
   -8.3341   -1.7870  -23.7757 C   0  0  0  0  0  0  0  0  0  0  0  0
   -7.2411   -2.7559  -23.3376 C   0  0  2  0  0  0  0  0  0  0  0  0
   -7.5372   -4.1076  -23.6566 O   0  0  0  0  0  0  0  0  0  0  0  0
   -8.3964   -4.3200  -23.2695 H   0  0  0  0  0  0  0  0  0  0  0  0
   -6.9345   -2.6364  -21.8353 C   0  0  0  0  0  0  0  0  0  0  0  0
   -7.3753   -1.3770  -21.2546 N   0  0  0  0  0  0  0  0  0  0  0  0
   -6.6088   -0.8093  -20.1930 C   0  0  0  0  0  0  0  0  0  0  0  0
   -6.9094   -1.0549  -18.8787 C   0  0  0  0  0  0  0  0  0  0  0  0
   -6.1987   -0.5694  -17.8294 N   0  0  0  0  0  0  0  0  0  0  0  0
   -5.1676    0.1995  -18.0815 C   0  0  0  0  0  0  0  0  0  0  0  0
   -4.7300    0.5265  -19.3948 C   0  0  0  0  0  0  0  0  0  0  0  0
   -3.6044    1.3610  -19.6334 C   0  0  0  0  0  0  0  0  0  0  0  0
   -3.2309    1.6601  -20.9138 C   0  0  0  0  0  0  0  0  0  0  0  0
   -3.9676    1.1436  -22.0037 C   0  0  0  0  0  0  0  0  0  0  0  0
   -5.0420    0.3195  -21.7972 C   0  0  0  0  0  0  0  0  0  0  0  0
   -5.4613   -0.0001  -20.4826 C   0  0  0  0  0  0  0  0  0  0  0  0
   -5.5897   -0.0942  -22.6363 H   0  0  0  0  0  0  0  0  0  0  0  0
   -3.6467    1.3681  -23.0160 H   0  0  0  0  0  0  0  0  0  0  0  0
   -2.3651    2.2875  -21.1074 H   0  0  0  0  0  0  0  0  0  0  0  0
   -3.0651    1.7677  -18.7816 H   0  0  0  0  0  0  0  0  0  0  0  0
   -4.6243    0.6097  -17.2273 H   0  0  0  0  0  0  0  0  0  0  0  0
   -7.7594   -1.6721  -18.5977 H   0  0  0  0  0  0  0  0  0  0  0  0
   -7.3930   -3.5104  -21.3368 H   0  0  0  0  0  0  0  0  0  0  0  0
   -5.8597   -2.6942  -21.6660 H   0  0  0  0  0  0  0  0  0  0  0  0
   -6.3407   -2.5458  -23.9200 H   0  0  0  0  0  0  0  0  0  0  0  0
   -7.8964   -0.8295  -24.0864 H   0  0  0  0  0  0  0  0  0  0  0  0
   -8.8249   -2.2062  -24.6597 H   0  0  0  0  0  0  0  0  0  0  0  0
   -9.8470   -2.4441  -22.3760 H   0  0  0  0  0  0  0  0  0  0  0  0
  1  2  2  0
  2  3  1  0
  3  4  1  0
  4  5  2  0
  5  6  1  0
  6  7  2  0
  7  8  1  0
  7  9  1  0
  9 10  1  0
  9 11  2  0
 11 12  1  0
  6 13  1  0
  5 14  1  0
  3 15  1  0
 15 16  1  0
 16 17  1  0
 17 18  1  0
 16 19  1  0
 19 20  1  0
 20 21  1  0
 21 22  2  0
 22 23  1  0
 23 24  2  0
 24 25  1  0
 25 26  2  0
 26 27  1  0
 27 28  2  0
 28 29  1  0
 29 30  2  0
 29 31  1  0
 28 32  1  0
 27 33  1  0
 26 34  1  0
 24 35  1  0
 22 36  1  0
 19 37  1  0
 19 38  1  0
 16 39  1  6
 15 40  1  0
 15 41  1  0
  3 42  1  1
 20  2  1  0
 30 21  1  0
 11  4  1  0
 30 25  1  0
M  END
>  <cnnaffinities>  (20) 
[5.2005, 5.23009]

>  <score>  (20) 
5.2005

>  <index>  (20) 
19

>  <Smiles>  (20) 
O=C1[C@@](c2c(c(c(Cl)c(Cl)c2[H])[H])[H])(C([C@](O[H])(C(N1c1c(nc(c2c(c(c(c(c12)[H])[H])[H])[H])[H])[H])([H])[H])[H])([H])[H])[H]

>  <h>  (20) 
<NA>

>  <Training>  (20) 
True

>  <Success>  (20) 
True

>  <enamine_searched>  (20) 
False

>  <enamine_id>  (20) 
nan

$$$$

     RDKit          3D

 66 71  0  0  0  0  0  0  0  0999 V2000
   -7.3617    3.3601  -21.8407 C   0  0  0  0  0  0  0  0  0  0  0  0
   -8.2885    2.9153  -22.8692 N   0  0  0  0  0  0  0  0  0  0  0  0
   -7.7482    2.1986  -23.8964 C   0  0  0  0  0  0  0  0  0  0  0  0
   -6.5430    2.0336  -24.0214 O   0  0  0  0  0  0  0  0  0  0  0  0
   -8.7289    1.5972  -24.9008 C   0  0  0  0  0  0  0  0  0  0  0  0
   -9.4078    0.4499  -24.3355 N   0  0  0  0  0  0  0  0  0  0  0  0
   -8.6720   -0.7912  -24.1703 C   0  0  0  0  0  0  0  0  0  0  0  0
   -9.0607   -1.5285  -22.8645 C   0  0  2  0  0  0  0  0  0  0  0  0
   -8.5309   -0.7480  -21.6358 C   0  0  0  0  0  0  0  0  0  0  0  0
   -8.9950    0.2555  -21.1385 O   0  0  0  0  0  0  0  0  0  0  0  0
   -7.4019   -1.3888  -21.1851 N   0  0  0  0  0  0  0  0  0  0  0  0
   -6.6064   -0.8163  -20.1675 C   0  0  0  0  0  0  0  0  0  0  0  0
   -6.9250   -1.0501  -18.8575 C   0  0  0  0  0  0  0  0  0  0  0  0
   -6.2241   -0.5691  -17.8044 N   0  0  0  0  0  0  0  0  0  0  0  0
   -5.1898    0.1933  -18.0708 C   0  0  0  0  0  0  0  0  0  0  0  0
   -4.7588    0.5297  -19.3859 C   0  0  0  0  0  0  0  0  0  0  0  0
   -3.6367    1.3655  -19.6270 C   0  0  0  0  0  0  0  0  0  0  0  0
   -3.2694    1.6860  -20.9039 C   0  0  0  0  0  0  0  0  0  0  0  0
   -4.0062    1.1939  -22.0037 C   0  0  0  0  0  0  0  0  0  0  0  0
   -5.0804    0.3619  -21.8012 C   0  0  0  0  0  0  0  0  0  0  0  0
   -5.4861    0.0085  -20.4840 C   0  0  0  0  0  0  0  0  0  0  0  0
   -5.6364   -0.0062  -22.6594 H   0  0  0  0  0  0  0  0  0  0  0  0
   -3.7151    1.4618  -23.0149 H   0  0  0  0  0  0  0  0  0  0  0  0
   -2.4045    2.3159  -21.0832 H   0  0  0  0  0  0  0  0  0  0  0  0
   -3.0925    1.7530  -18.7697 H   0  0  0  0  0  0  0  0  0  0  0  0
   -4.6251    0.5841  -17.2232 H   0  0  0  0  0  0  0  0  0  0  0  0
   -7.7931   -1.6622  -18.6243 H   0  0  0  0  0  0  0  0  0  0  0  0
   -7.0435   -2.5756  -21.9264 C   0  0  0  0  0  0  0  0  0  0  0  0
   -8.3133   -2.8967  -22.7262 C   0  0  2  0  0  0  0  0  0  0  0  0
   -8.0070   -3.6810  -24.0194 C   0  0  0  0  0  0  0  0  0  0  0  0
   -7.4139   -5.0588  -23.8046 C   0  0  0  0  0  0  0  0  0  0  0  0
   -8.2459   -6.1733  -23.6766 C   0  0  0  0  0  0  0  0  0  0  0  0
   -7.7289   -7.4460  -23.4507 C   0  0  0  0  0  0  0  0  0  0  0  0
   -6.3600   -7.6346  -23.3194 C   0  0  0  0  0  0  0  0  0  0  0  0
   -5.5152   -6.5419  -23.4854 C   0  0  0  0  0  0  0  0  0  0  0  0
   -6.0340   -5.2761  -23.7470 C   0  0  0  0  0  0  0  0  0  0  0  0
   -5.3463   -4.4465  -23.9065 H   0  0  0  0  0  0  0  0  0  0  0  0
   -4.4422   -6.6836  -23.4157 H   0  0  0  0  0  0  0  0  0  0  0  0
   -5.9462   -8.6138  -23.0915 H   0  0  0  0  0  0  0  0  0  0  0  0
   -8.4258   -8.2800  -23.3894 H   0  0  0  0  0  0  0  0  0  0  0  0
   -9.3254   -6.0607  -23.7598 H   0  0  0  0  0  0  0  0  0  0  0  0
   -8.9342   -3.7867  -24.5947 H   0  0  0  0  0  0  0  0  0  0  0  0
   -7.3131   -3.0944  -24.6338 H   0  0  0  0  0  0  0  0  0  0  0  0
   -8.9455   -3.5314  -22.1020 H   0  0  0  0  0  0  0  0  0  0  0  0
   -6.7685   -3.3895  -21.2480 H   0  0  0  0  0  0  0  0  0  0  0  0
   -6.1890   -2.3979  -22.6001 H   0  0  0  0  0  0  0  0  0  0  0  0
  -10.5722   -1.5889  -22.8052 C   0  0  0  0  0  0  0  0  0  0  0  0
  -11.2103   -2.5034  -21.9675 C   0  0  0  0  0  0  0  0  0  0  0  0
  -12.5885   -2.5084  -21.8775 C   0  0  0  0  0  0  0  0  0  0  0  0
  -13.3484   -3.6056  -20.7713 Cl  0  0  0  0  0  0  0  0  0  0  0  0
  -13.3873   -1.6371  -22.6165 C   0  0  0  0  0  0  0  0  0  0  0  0
  -12.7595   -0.7012  -23.4087 C   0  0  0  0  0  0  0  0  0  0  0  0
  -11.3708   -0.6473  -23.4672 C   0  0  0  0  0  0  0  0  0  0  0  0
  -10.7605    0.5060  -24.1880 C   0  0  0  0  0  0  0  0  0  0  0  0
  -11.4290    1.4533  -24.5879 O   0  0  0  0  0  0  0  0  0  0  0  0
  -13.3161    0.0326  -23.9785 H   0  0  0  0  0  0  0  0  0  0  0  0
  -14.4682   -1.6798  -22.5339 H   0  0  0  0  0  0  0  0  0  0  0  0
  -10.6425   -3.2013  -21.3622 H   0  0  0  0  0  0  0  0  0  0  0  0
   -8.8832   -1.4604  -25.0149 H   0  0  0  0  0  0  0  0  0  0  0  0
   -7.6018   -0.5596  -24.1779 H   0  0  0  0  0  0  0  0  0  0  0  0
   -9.5071    2.3104  -25.1989 H   0  0  0  0  0  0  0  0  0  0  0  0
   -8.1458    1.2999  -25.7780 H   0  0  0  0  0  0  0  0  0  0  0  0
   -9.2499    2.7521  -22.5850 H   0  0  0  0  0  0  0  0  0  0  0  0
   -6.6966    4.1308  -22.2434 H   0  0  0  0  0  0  0  0  0  0  0  0
   -7.9099    3.7845  -20.9991 H   0  0  0  0  0  0  0  0  0  0  0  0
   -6.7439    2.5145  -21.5044 H   0  0  0  0  0  0  0  0  0  0  0  0
  1  2  1  0
  2  3  1  0
  3  4  2  0
  3  5  1  0
  5  6  1  0
  6  7  1  0
  8  7  1  6
  8  9  1  0
  9 10  2  0
  9 11  1  0
 11 12  1  0
 12 13  2  0
 13 14  1  0
 14 15  2  0
 15 16  1  0
 16 17  2  0
 17 18  1  0
 18 19  2  0
 19 20  1  0
 20 21  2  0
 20 22  1  0
 19 23  1  0
 18 24  1  0
 17 25  1  0
 15 26  1  0
 13 27  1  0
 11 28  1  0
 28 29  1  0
 29 30  1  0
 30 31  1  0
 31 32  2  0
 32 33  1  0
 33 34  2  0
 34 35  1  0
 35 36  2  0
 36 37  1  0
 35 38  1  0
 34 39  1  0
 33 40  1  0
 32 41  1  0
 30 42  1  0
 30 43  1  0
 29 44  1  1
 28 45  1  0
 28 46  1  0
  8 47  1  0
 47 48  2  0
 48 49  1  0
 49 50  1  0
 49 51  2  0
 51 52  1  0
 52 53  2  0
 53 54  1  0
 54 55  2  0
 52 56  1  0
 51 57  1  0
 48 58  1  0
  7 59  1  0
  7 60  1  0
  5 61  1  0
  5 62  1  0
  2 63  1  0
  1 64  1  0
  1 65  1  0
  1 66  1  0
 54  6  1  0
 29  8  1  0
 36 31  1  0
 53 47  1  0
 21 12  1  0
 21 16  1  0
M  END
>  <cnnaffinities>  (21) 
[6.41454, 6.4483]

>  <score>  (21) 
6.41454

>  <index>  (21) 
20

>  <Smiles>  (21) 
C(N(C(=O)C(N1C([C@@]2(C(=O)N(c3c(nc(c4c(c(c(c(c34)[H])[H])[H])[H])[H])[H])C([C@@]2(C(c2c(c(c(c(c2[H])[H])[H])[H])[H])([H])[H])[H])([H])[H])c2c(c(Cl)c(c(c2C1=O)[H])[H])[H])([H])[H])([H])[H])[H])([H])([H])[H]

>  <h>  (21) 
<NA>

>  <Training>  (21) 
True

>  <Success>  (21) 
True

>  <enamine_searched>  (21) 
False

>  <enamine_id>  (21) 
nan

$$$$

     RDKit          3D

 63 68  0  0  0  0  0  0  0  0999 V2000
   -8.3287   -4.1259  -23.4844 C   0  0  0  0  0  0  0  0  0  0  0  0
   -8.5517   -2.9708  -22.5191 C   0  0  1  0  0  0  0  0  0  0  0  0
   -7.4047   -2.7891  -21.5127 C   0  0  0  0  0  0  0  0  0  0  0  0
   -7.4265   -1.3750  -21.2181 N   0  0  0  0  0  0  0  0  0  0  0  0
   -6.6282   -0.8022  -20.1985 C   0  0  0  0  0  0  0  0  0  0  0  0
   -6.9122   -1.0784  -18.8816 C   0  0  0  0  0  0  0  0  0  0  0  0
   -6.2214   -0.5874  -17.8251 N   0  0  0  0  0  0  0  0  0  0  0  0
   -5.1998    0.1945  -18.0862 C   0  0  0  0  0  0  0  0  0  0  0  0
   -4.7763    0.5325  -19.4032 C   0  0  0  0  0  0  0  0  0  0  0  0
   -3.6409    1.3577  -19.6203 C   0  0  0  0  0  0  0  0  0  0  0  0
   -3.2364    1.6609  -20.8920 C   0  0  0  0  0  0  0  0  0  0  0  0
   -3.9546    1.1587  -22.0012 C   0  0  0  0  0  0  0  0  0  0  0  0
   -5.0312    0.3279  -21.8180 C   0  0  0  0  0  0  0  0  0  0  0  0
   -5.4943    0.0192  -20.5046 C   0  0  0  0  0  0  0  0  0  0  0  0
   -5.5271   -0.0956  -22.6860 H   0  0  0  0  0  0  0  0  0  0  0  0
   -3.6204    1.3966  -23.0084 H   0  0  0  0  0  0  0  0  0  0  0  0
   -2.3635    2.2862  -21.0631 H   0  0  0  0  0  0  0  0  0  0  0  0
   -3.1067    1.7377  -18.7546 H   0  0  0  0  0  0  0  0  0  0  0  0
   -4.6372    0.5953  -17.2416 H   0  0  0  0  0  0  0  0  0  0  0  0
   -7.7669   -1.7114  -18.6390 H   0  0  0  0  0  0  0  0  0  0  0  0
   -8.1548   -0.6291  -22.1158 C   0  0  0  0  0  0  0  0  0  0  0  0
   -8.2458    0.5794  -22.0642 O   0  0  0  0  0  0  0  0  0  0  0  0
   -8.7724   -1.5663  -23.1774 C   0  0  1  0  0  0  0  0  0  0  0  0
   -8.0190   -1.3128  -24.4959 C   0  0  0  0  0  0  0  0  0  0  0  0
   -8.6709   -1.8742  -25.6730 N   0  0  0  0  0  0  0  0  0  0  0  0
   -7.8538   -2.2233  -26.8220 C   0  0  0  0  0  0  0  0  0  0  0  0
   -7.7958   -3.7381  -27.0355 C   0  0  0  0  0  0  0  0  0  0  0  0
   -6.9660   -4.4308  -26.4630 O   0  0  0  0  0  0  0  0  0  0  0  0
   -8.7199   -4.2387  -27.9084 N   0  0  0  0  0  0  0  0  0  0  0  0
   -8.9241   -5.6763  -28.0104 C   0  0  0  0  0  0  0  0  0  0  0  0
   -9.5350   -6.2922  -26.7722 C   0  0  0  0  0  0  0  0  0  0  0  0
   -9.5925   -7.7806  -26.6218 C   0  0  0  0  0  0  0  0  0  0  0  0
   -8.6690   -6.9776  -25.7581 C   0  0  0  0  0  0  0  0  0  0  0  0
   -8.8967   -6.8676  -24.7034 H   0  0  0  0  0  0  0  0  0  0  0  0
   -7.6096   -7.0218  -25.9854 H   0  0  0  0  0  0  0  0  0  0  0  0
   -9.1524   -8.3862  -27.4050 H   0  0  0  0  0  0  0  0  0  0  0  0
  -10.4748   -8.2256  -26.1751 H   0  0  0  0  0  0  0  0  0  0  0  0
  -10.3772   -5.7433  -26.3680 H   0  0  0  0  0  0  0  0  0  0  0  0
   -9.5465   -5.8662  -28.8901 H   0  0  0  0  0  0  0  0  0  0  0  0
   -7.9579   -6.1394  -28.2120 H   0  0  0  0  0  0  0  0  0  0  0  0
   -9.4994   -3.6399  -28.1463 H   0  0  0  0  0  0  0  0  0  0  0  0
   -6.8375   -1.8509  -26.6609 H   0  0  0  0  0  0  0  0  0  0  0  0
   -8.2975   -1.7527  -27.7007 H   0  0  0  0  0  0  0  0  0  0  0  0
  -10.0167   -1.8146  -25.8808 C   0  0  0  0  0  0  0  0  0  0  0  0
  -10.5342   -2.0958  -26.9643 O   0  0  0  0  0  0  0  0  0  0  0  0
  -10.8201   -1.4193  -24.7037 C   0  0  0  0  0  0  0  0  0  0  0  0
  -12.1832   -1.2375  -24.9153 C   0  0  0  0  0  0  0  0  0  0  0  0
  -12.9923   -0.8788  -23.8563 C   0  0  0  0  0  0  0  0  0  0  0  0
  -12.4089   -0.7498  -22.5991 C   0  0  0  0  0  0  0  0  0  0  0  0
  -13.2198   -0.4215  -21.5838 F   0  0  0  0  0  0  0  0  0  0  0  0
  -11.0608   -0.9581  -22.3623 C   0  0  0  0  0  0  0  0  0  0  0  0
  -10.2361   -1.2802  -23.4384 C   0  0  0  0  0  0  0  0  0  0  0  0
  -10.6349   -0.8916  -21.3657 H   0  0  0  0  0  0  0  0  0  0  0  0
  -14.0586   -0.7080  -23.9592 H   0  0  0  0  0  0  0  0  0  0  0  0
  -12.5523   -1.3899  -25.9266 H   0  0  0  0  0  0  0  0  0  0  0  0
   -7.9134   -0.2242  -24.5954 H   0  0  0  0  0  0  0  0  0  0  0  0
   -7.0198   -1.7537  -24.4454 H   0  0  0  0  0  0  0  0  0  0  0  0
   -7.5482   -3.3579  -20.5911 H   0  0  0  0  0  0  0  0  0  0  0  0
   -6.4296   -3.0755  -21.9337 H   0  0  0  0  0  0  0  0  0  0  0  0
   -9.4638   -3.1685  -21.9370 H   0  0  0  0  0  0  0  0  0  0  0  0
   -9.1440   -4.1920  -24.2136 H   0  0  0  0  0  0  0  0  0  0  0  0
   -8.2815   -5.0817  -22.9522 H   0  0  0  0  0  0  0  0  0  0  0  0
   -7.3921   -4.0178  -24.0410 H   0  0  0  0  0  0  0  0  0  0  0  0
  1  2  1  0
  2  3  1  0
  3  4  1  0
  4  5  1  0
  5  6  2  0
  6  7  1  0
  7  8  2  0
  8  9  1  0
  9 10  2  0
 10 11  1  0
 11 12  2  0
 12 13  1  0
 13 14  2  0
 13 15  1  0
 12 16  1  0
 11 17  1  0
 10 18  1  0
  8 19  1  0
  6 20  1  0
  4 21  1  0
 21 22  2  0
 21 23  1  0
 23 24  1  6
 24 25  1  0
 25 26  1  0
 26 27  1  0
 27 28  2  0
 27 29  1  0
 29 30  1  0
 30 31  1  0
 31 32  1  0
 32 33  1  0
 33 34  1  0
 33 35  1  0
 32 36  1  0
 32 37  1  0
 31 38  1  0
 30 39  1  0
 30 40  1  0
 29 41  1  0
 26 42  1  0
 26 43  1  0
 25 44  1  0
 44 45  2  0
 44 46  1  0
 46 47  2  0
 47 48  1  0
 48 49  2  0
 49 50  1  0
 49 51  1  0
 51 52  2  0
 51 53  1  0
 48 54  1  0
 47 55  1  0
 24 56  1  0
 24 57  1  0
  3 58  1  0
  3 59  1  0
  2 60  1  1
  1 61  1  0
  1 62  1  0
  1 63  1  0
 23  2  1  0
 33 31  1  0
 52 46  1  0
 14  5  1  0
 52 23  1  0
 14  9  1  0
M  END
>  <cnnaffinities>  (22) 
[6.04611, 5.84238]

>  <score>  (22) 
6.04611

>  <index>  (22) 
21

>  <Smiles>  (22) 
C([C@]1(C(N(c2c(nc(c3c(c(c(c(c23)[H])[H])[H])[H])[H])[H])C(=O)[C@]21C(N(C(C(=O)N(C(C1(C(C1([H])[H])([H])[H])[H])([H])[H])[H])([H])[H])C(=O)c1c(c(c(F)c(c21)[H])[H])[H])([H])[H])([H])[H])[H])([H])([H])[H]

>  <h>  (22) 
<NA>

>  <Training>  (22) 
True

>  <Success>  (22) 
True

>  <enamine_searched>  (22) 
False

>  <enamine_id>  (22) 
nan

$$$$

     RDKit          3D

 68 73  0  0  0  0  0  0  0  0999 V2000
   -7.3128    3.4096  -21.8465 C   0  0  0  0  0  0  0  0  0  0  0  0
   -8.2737    2.9621  -22.8393 N   0  0  0  0  0  0  0  0  0  0  0  0
   -7.7966    2.2398  -23.8878 C   0  0  0  0  0  0  0  0  0  0  0  0
   -6.6033    2.0095  -24.0257 O   0  0  0  0  0  0  0  0  0  0  0  0
   -8.8240    1.6843  -24.8720 C   0  0  0  0  0  0  0  0  0  0  0  0
   -9.4926    0.5379  -24.2856 N   0  0  0  0  0  0  0  0  0  0  0  0
   -8.7528   -0.7120  -24.1618 C   0  0  0  0  0  0  0  0  0  0  0  0
   -9.1371   -1.4881  -22.8770 C   0  0  2  0  0  0  0  0  0  0  0  0
   -8.5731   -0.7348  -21.6426 C   0  0  0  0  0  0  0  0  0  0  0  0
   -9.0042    0.2808  -21.1306 O   0  0  0  0  0  0  0  0  0  0  0  0
   -7.4491   -1.3974  -21.2097 N   0  0  0  0  0  0  0  0  0  0  0  0
   -6.6356   -0.8317  -20.1942 C   0  0  0  0  0  0  0  0  0  0  0  0
   -6.9504   -1.0616  -18.8788 C   0  0  0  0  0  0  0  0  0  0  0  0
   -6.2452   -0.5891  -17.8252 N   0  0  0  0  0  0  0  0  0  0  0  0
   -5.2057    0.1667  -18.0867 C   0  0  0  0  0  0  0  0  0  0  0  0
   -4.7807    0.5098  -19.4010 C   0  0  0  0  0  0  0  0  0  0  0  0
   -3.6628    1.3565  -19.6283 C   0  0  0  0  0  0  0  0  0  0  0  0
   -3.2962    1.6915  -20.9026 C   0  0  0  0  0  0  0  0  0  0  0  0
   -4.0341    1.2080  -22.0038 C   0  0  0  0  0  0  0  0  0  0  0  0
   -5.1112    0.3738  -21.8124 C   0  0  0  0  0  0  0  0  0  0  0  0
   -5.5146    0.0021  -20.4997 C   0  0  0  0  0  0  0  0  0  0  0  0
   -5.6753    0.0292  -22.6715 H   0  0  0  0  0  0  0  0  0  0  0  0
   -3.7465    1.4932  -23.0109 H   0  0  0  0  0  0  0  0  0  0  0  0
   -2.4314    2.3265  -21.0744 H   0  0  0  0  0  0  0  0  0  0  0  0
   -3.1194    1.7355  -18.7680 H   0  0  0  0  0  0  0  0  0  0  0  0
   -4.6444    0.5547  -17.2366 H   0  0  0  0  0  0  0  0  0  0  0  0
   -7.8179   -1.6716  -18.6425 H   0  0  0  0  0  0  0  0  0  0  0  0
   -7.1220   -2.5768  -21.9890 C   0  0  0  0  0  0  0  0  0  0  0  0
   -8.4081   -2.8656  -22.7776 C   0  0  2  0  0  0  0  0  0  0  0  0
   -8.0863   -3.6318  -24.0649 C   0  0  0  0  0  0  0  0  0  0  0  0
   -9.2550   -4.1552  -24.7309 N   0  0  0  0  0  0  0  0  0  0  0  0
   -9.1500   -4.8093  -25.9550 C   0  0  0  0  0  0  0  0  0  0  0  0
  -10.3085   -5.3031  -26.5736 C   0  0  0  0  0  0  0  0  0  0  0  0
  -10.2778   -5.8167  -27.8605 C   0  0  0  0  0  0  0  0  0  0  0  0
   -9.0761   -5.9049  -28.5614 C   0  0  0  0  0  0  0  0  0  0  0  0
   -7.9060   -5.5369  -27.9158 C   0  0  0  0  0  0  0  0  0  0  0  0
   -7.9297   -4.9921  -26.6364 C   0  0  0  0  0  0  0  0  0  0  0  0
   -6.9963   -4.6716  -26.1933 H   0  0  0  0  0  0  0  0  0  0  0  0
   -6.9551   -5.6448  -28.4347 H   0  0  0  0  0  0  0  0  0  0  0  0
   -9.0526   -6.2326  -29.5948 H   0  0  0  0  0  0  0  0  0  0  0  0
  -11.2128   -6.1332  -28.3223 H   0  0  0  0  0  0  0  0  0  0  0  0
  -11.2517   -5.2949  -26.0313 H   0  0  0  0  0  0  0  0  0  0  0  0
  -10.1690   -3.7696  -24.5152 H   0  0  0  0  0  0  0  0  0  0  0  0
   -7.4449   -4.4881  -23.8083 H   0  0  0  0  0  0  0  0  0  0  0  0
   -7.4862   -2.9886  -24.7366 H   0  0  0  0  0  0  0  0  0  0  0  0
   -9.0352   -3.5202  -22.1654 H   0  0  0  0  0  0  0  0  0  0  0  0
   -6.8466   -3.4130  -21.3391 H   0  0  0  0  0  0  0  0  0  0  0  0
   -6.2748   -2.3941  -22.6705 H   0  0  0  0  0  0  0  0  0  0  0  0
  -10.6473   -1.5413  -22.7803 C   0  0  0  0  0  0  0  0  0  0  0  0
  -11.2756   -2.4652  -21.9393 C   0  0  0  0  0  0  0  0  0  0  0  0
  -12.6500   -2.4501  -21.7911 C   0  0  0  0  0  0  0  0  0  0  0  0
  -13.3898   -3.5740  -20.6939 Cl  0  0  0  0  0  0  0  0  0  0  0  0
  -13.4524   -1.5308  -22.4641 C   0  0  0  0  0  0  0  0  0  0  0  0
  -12.8340   -0.5883  -23.2578 C   0  0  0  0  0  0  0  0  0  0  0  0
  -11.4480   -0.5657  -23.3883 C   0  0  0  0  0  0  0  0  0  0  0  0
  -10.8461    0.5967  -24.1149 C   0  0  0  0  0  0  0  0  0  0  0  0
  -11.5204    1.5425  -24.4984 O   0  0  0  0  0  0  0  0  0  0  0  0
  -13.3974    0.1785  -23.7737 H   0  0  0  0  0  0  0  0  0  0  0  0
  -14.5289   -1.5347  -22.3351 H   0  0  0  0  0  0  0  0  0  0  0  0
  -10.7090   -3.1726  -21.3461 H   0  0  0  0  0  0  0  0  0  0  0  0
   -7.6846   -0.4761  -24.1426 H   0  0  0  0  0  0  0  0  0  0  0  0
   -8.9430   -1.3457  -25.0395 H   0  0  0  0  0  0  0  0  0  0  0  0
   -8.3062    1.3858  -25.7900 H   0  0  0  0  0  0  0  0  0  0  0  0
   -9.5969    2.4106  -25.1393 H   0  0  0  0  0  0  0  0  0  0  0  0
   -9.2254    2.8125  -22.5380 H   0  0  0  0  0  0  0  0  0  0  0  0
   -6.7136    2.5537  -21.5106 H   0  0  0  0  0  0  0  0  0  0  0  0
   -7.8500    3.8650  -21.0165 H   0  0  0  0  0  0  0  0  0  0  0  0
   -6.6484    4.1720  -22.2637 H   0  0  0  0  0  0  0  0  0  0  0  0
  1  2  1  0
  2  3  1  0
  3  4  2  0
  3  5  1  0
  5  6  1  0
  6  7  1  0
  8  7  1  6
  8  9  1  0
  9 10  2  0
  9 11  1  0
 11 12  1  0
 12 13  2  0
 13 14  1  0
 14 15  2  0
 15 16  1  0
 16 17  2  0
 17 18  1  0
 18 19  2  0
 19 20  1  0
 20 21  2  0
 20 22  1  0
 19 23  1  0
 18 24  1  0
 17 25  1  0
 15 26  1  0
 13 27  1  0
 11 28  1  0
 28 29  1  0
 29 30  1  0
 30 31  1  0
 31 32  1  0
 32 33  2  0
 33 34  1  0
 34 35  2  0
 35 36  1  0
 36 37  2  0
 37 38  1  0
 36 39  1  0
 35 40  1  0
 34 41  1  0
 33 42  1  0
 31 43  1  0
 30 44  1  0
 30 45  1  0
 29 46  1  1
 28 47  1  0
 28 48  1  0
  8 49  1  0
 49 50  2  0
 50 51  1  0
 51 52  1  0
 51 53  2  0
 53 54  1  0
 54 55  2  0
 55 56  1  0
 56 57  2  0
 54 58  1  0
 53 59  1  0
 50 60  1  0
  7 61  1  0
  7 62  1  0
  5 63  1  0
  5 64  1  0
  2 65  1  0
  1 66  1  0
  1 67  1  0
  1 68  1  0
 56  6  1  0
 29  8  1  0
 37 32  1  0
 55 49  1  0
 21 12  1  0
 21 16  1  0
M  END
>  <cnnaffinities>  (23) 
[5.9784, 6.47663]

>  <score>  (23) 
5.9784

>  <index>  (23) 
23

>  <Smiles>  (23) 
C(N(C(=O)C(N1C([C@@]2(C(=O)N(c3c(nc(c4c(c(c(c(c34)[H])[H])[H])[H])[H])[H])C([C@@]2(C(N(c2c(c(c(c(c2[H])[H])[H])[H])[H])[H])([H])[H])[H])([H])[H])c2c(c(Cl)c(c(c2C1=O)[H])[H])[H])([H])[H])([H])[H])[H])([H])([H])[H]

>  <h>  (23) 
<NA>

>  <Training>  (23) 
True

>  <Success>  (23) 
True

>  <enamine_searched>  (23) 
False

>  <enamine_id>  (23) 
nan

$$$$

     RDKit          3D

 65 70  0  0  0  0  0  0  0  0999 V2000
   -4.9630   -7.3335  -23.7355 O   0  0  0  0  0  0  0  0  0  0  0  0
   -6.0414   -7.2738  -24.3072 C   0  0  0  0  0  0  0  0  0  0  0  0
   -7.2427   -6.6054  -23.6547 C   0  0  0  0  0  0  0  0  0  0  0  0
   -7.1193   -5.1182  -23.8190 N   0  0  1  0  0  4  0  0  0  0  0  0
   -7.2975   -4.7302  -25.3113 C   0  0  0  0  0  0  0  0  0  0  0  0
   -7.2331   -3.2479  -25.5231 C   0  0  0  0  0  0  0  0  0  0  0  0
   -6.8725   -2.7580  -26.7757 C   0  0  0  0  0  0  0  0  0  0  0  0
   -6.8094   -1.3980  -27.0369 C   0  0  0  0  0  0  0  0  0  0  0  0
   -7.1149   -0.5122  -26.0093 C   0  0  0  0  0  0  0  0  0  0  0  0
   -7.0288    1.2034  -26.3038 Cl  0  0  0  0  0  0  0  0  0  0  0  0
   -7.4863   -0.9737  -24.7560 C   0  0  0  0  0  0  0  0  0  0  0  0
   -7.5579   -2.3503  -24.5060 C   0  0  0  0  0  0  0  0  0  0  0  0
   -7.9436   -2.8210  -23.1160 C   0  0  2  0  0  0  0  0  0  0  0  0
   -9.1897   -2.1103  -22.5611 C   0  0  0  0  0  0  0  0  0  0  0  0
   -8.7250   -1.1580  -21.4518 C   0  0  0  0  0  0  0  0  0  0  0  0
   -7.3211   -1.4907  -21.2428 N   0  0  0  0  0  0  0  0  0  0  0  0
   -6.5542   -0.8909  -20.2013 C   0  0  0  0  0  0  0  0  0  0  0  0
   -6.8950   -1.0681  -18.8816 C   0  0  0  0  0  0  0  0  0  0  0  0
   -6.2148   -0.5478  -17.8282 N   0  0  0  0  0  0  0  0  0  0  0  0
   -5.1755    0.2066  -18.0904 C   0  0  0  0  0  0  0  0  0  0  0  0
   -4.7362    0.5198  -19.4046 C   0  0  0  0  0  0  0  0  0  0  0  0
   -3.6178    1.3666  -19.6322 C   0  0  0  0  0  0  0  0  0  0  0  0
   -3.2423    1.6847  -20.9057 C   0  0  0  0  0  0  0  0  0  0  0  0
   -3.9798    1.1866  -22.0036 C   0  0  0  0  0  0  0  0  0  0  0  0
   -5.0512    0.3523  -21.8153 C   0  0  0  0  0  0  0  0  0  0  0  0
   -5.4518   -0.0216  -20.5023 C   0  0  0  0  0  0  0  0  0  0  0  0
   -5.5878   -0.0392  -22.6779 H   0  0  0  0  0  0  0  0  0  0  0  0
   -3.6577    1.4282  -23.0114 H   0  0  0  0  0  0  0  0  0  0  0  0
   -2.3754    2.3141  -21.0878 H   0  0  0  0  0  0  0  0  0  0  0  0
   -3.0815    1.7596  -18.7704 H   0  0  0  0  0  0  0  0  0  0  0  0
   -4.6283    0.6127  -17.2378 H   0  0  0  0  0  0  0  0  0  0  0  0
   -7.7519   -1.6807  -18.6035 H   0  0  0  0  0  0  0  0  0  0  0  0
   -6.8366   -2.4384  -22.1237 C   0  0  0  0  0  0  0  0  0  0  0  0
   -5.7332   -2.9521  -22.1378 O   0  0  0  0  0  0  0  0  0  0  0  0
   -8.8651   -0.0938  -21.6990 H   0  0  0  0  0  0  0  0  0  0  0  0
   -9.2922   -1.3660  -20.5504 H   0  0  0  0  0  0  0  0  0  0  0  0
   -9.7608   -1.6014  -23.3418 H   0  0  0  0  0  0  0  0  0  0  0  0
   -9.8559   -2.8597  -22.1241 H   0  0  0  0  0  0  0  0  0  0  0  0
   -8.1483   -4.3450  -23.0308 C   0  0  0  0  0  0  0  0  0  0  0  0
   -9.1391   -4.5924  -23.4226 H   0  0  0  0  0  0  0  0  0  0  0  0
   -8.1063   -4.6347  -21.9791 H   0  0  0  0  0  0  0  0  0  0  0  0
   -7.7189   -0.2479  -23.9777 H   0  0  0  0  0  0  0  0  0  0  0  0
   -6.5272   -1.0167  -28.0133 H   0  0  0  0  0  0  0  0  0  0  0  0
   -6.6320   -3.4595  -27.5699 H   0  0  0  0  0  0  0  0  0  0  0  0
   -8.2599   -5.1369  -25.6420 H   0  0  0  0  0  0  0  0  0  0  0  0
   -6.5253   -5.2164  -25.9004 H   0  0  0  0  0  0  0  0  0  0  0  0
   -6.1716   -4.8065  -23.4943 H   0  0  0  0  0  0  0  0  0  0  0  0
   -7.2358   -6.8693  -22.5977 H   0  0  0  0  0  0  0  0  0  0  0  0
   -8.1909   -6.9493  -24.0926 H   0  0  0  0  0  0  0  0  0  0  0  0
   -6.2357   -7.7394  -25.5736 N   0  0  0  0  0  0  0  0  0  0  0  0
   -5.1434   -8.4096  -26.2589 C   0  0  0  0  0  0  0  0  0  0  0  0
   -4.1772   -7.3743  -26.8074 C   0  0  1  0  0  0  0  0  0  0  0  0
   -3.0934   -7.9012  -27.7852 C   0  0  0  0  0  0  0  0  0  0  0  0
   -3.7157   -7.0558  -28.9203 C   0  0  1  0  0  0  0  0  0  0  0  0
   -4.2341   -7.8189  -29.9583 F   0  0  0  0  0  0  0  0  0  0  0  0
   -4.7876   -6.5158  -27.9526 C   0  0  0  0  0  0  0  0  0  0  0  0
   -5.8050   -6.8108  -28.2463 H   0  0  0  0  0  0  0  0  0  0  0  0
   -4.8073   -5.4327  -27.7763 H   0  0  0  0  0  0  0  0  0  0  0  0
   -3.0667   -6.3052  -29.3836 H   0  0  0  0  0  0  0  0  0  0  0  0
   -2.0658   -7.6423  -27.5044 H   0  0  0  0  0  0  0  0  0  0  0  0
   -3.1159   -8.9821  -27.9781 H   0  0  0  0  0  0  0  0  0  0  0  0
   -3.7909   -6.8061  -25.9499 H   0  0  0  0  0  0  0  0  0  0  0  0
   -5.5643   -8.9978  -27.0843 H   0  0  0  0  0  0  0  0  0  0  0  0
   -4.6199   -9.0742  -25.5573 H   0  0  0  0  0  0  0  0  0  0  0  0
   -7.1835   -7.9006  -25.8838 H   0  0  0  0  0  0  0  0  0  0  0  0
  1  2  2  0
  2  3  1  0
  3  4  1  0
  4  5  1  0
  5  6  1  0
  6  7  2  0
  7  8  1  0
  8  9  2  0
  9 10  1  0
  9 11  1  0
 11 12  2  0
 12 13  1  0
 13 14  1  1
 14 15  1  0
 15 16  1  0
 16 17  1  0
 17 18  2  0
 18 19  1  0
 19 20  2  0
 20 21  1  0
 21 22  2  0
 22 23  1  0
 23 24  2  0
 24 25  1  0
 25 26  2  0
 25 27  1  0
 24 28  1  0
 23 29  1  0
 22 30  1  0
 20 31  1  0
 18 32  1  0
 16 33  1  0
 33 34  2  0
 15 35  1  0
 15 36  1  0
 14 37  1  0
 14 38  1  0
 13 39  1  0
 39 40  1  0
 39 41  1  0
 11 42  1  0
  8 43  1  0
  7 44  1  0
  5 45  1  0
  5 46  1  0
  4 47  1  1
  3 48  1  0
  3 49  1  0
  2 50  1  0
 50 51  1  0
 51 52  1  0
 52 53  1  0
 53 54  1  0
 54 55  1  0
 54 56  1  0
 56 57  1  0
 56 58  1  0
 54 59  1  6
 53 60  1  0
 53 61  1  0
 52 62  1  1
 51 63  1  0
 51 64  1  0
 50 65  1  0
 39  4  1  0
 56 52  1  0
 12  6  1  0
 33 13  1  0
 26 17  1  0
 26 21  1  0
M  CHG  1   4   1
M  END
>  <cnnaffinities>  (24) 
[5.83773, 6.27316, 6.05131, 5.69763]

>  <score>  (24) 
5.83773

>  <index>  (24) 
24

>  <Smiles>  (24) 
O=C(C([N@+]1(C(c2c(c(c(Cl)c(c2[C@@]2(C(C(N(c3c(nc(c4c(c(c(c(c34)[H])[H])[H])[H])[H])[H])C2=O)([H])[H])([H])[H])C1([H])[H])[H])[H])[H])([H])[H])[H])([H])[H])N(C([C@]1(C([C@@](F)(C1([H])[H])[H])([H])[H])[H])([H])[H])[H]

>  <h>  (24) 
<NA>

>  <Training>  (24) 
True

>  <Success>  (24) 
True

>  <enamine_searched>  (24) 
False

>  <enamine_id>  (24) 
nan

$$$$

     RDKit          3D

 70 75  0  0  0  0  0  0  0  0999 V2000
   -8.0184   -6.5498  -24.4991 O   0  0  0  0  0  0  0  0  0  0  0  0
   -8.0619   -6.0200  -23.4057 C   0  0  0  0  0  0  0  0  0  0  0  0
   -9.2070   -5.1304  -22.9474 C   0  0  0  0  0  0  0  0  0  0  0  0
   -8.8254   -3.7003  -23.1089 N   0  0  1  0  0  4  0  0  0  0  0  0
   -8.4948   -3.4116  -24.5761 C   0  0  0  0  0  0  0  0  0  0  0  0
   -8.1526   -1.9619  -24.7784 C   0  0  0  0  0  0  0  0  0  0  0  0
   -7.3450   -1.5756  -25.8483 C   0  0  0  0  0  0  0  0  0  0  0  0
   -7.0148   -0.2407  -26.0509 C   0  0  0  0  0  0  0  0  0  0  0  0
   -7.5173    0.7239  -25.1799 C   0  0  0  0  0  0  0  0  0  0  0  0
   -7.1030    2.4049  -25.3907 Cl  0  0  0  0  0  0  0  0  0  0  0  0
   -8.3198    0.3594  -24.1123 C   0  0  0  0  0  0  0  0  0  0  0  0
   -8.6384   -0.9852  -23.9124 C   0  0  0  0  0  0  0  0  0  0  0  0
   -9.4380   -1.3058  -22.6795 C   0  0  2  0  0  0  0  0  0  0  0  0
   -8.6900   -0.8438  -21.4384 C   0  0  0  0  0  0  0  0  0  0  0  0
   -9.1504    0.0157  -20.7107 O   0  0  0  0  0  0  0  0  0  0  0  0
   -7.4593   -1.4327  -21.2129 N   0  0  0  0  0  0  0  0  0  0  0  0
   -6.6217   -0.8926  -20.2009 C   0  0  0  0  0  0  0  0  0  0  0  0
   -6.9310   -1.1219  -18.8861 C   0  0  0  0  0  0  0  0  0  0  0  0
   -6.2330   -0.6335  -17.8333 N   0  0  0  0  0  0  0  0  0  0  0  0
   -5.2075    0.1344  -18.1078 C   0  0  0  0  0  0  0  0  0  0  0  0
   -4.7767    0.4629  -19.4228 C   0  0  0  0  0  0  0  0  0  0  0  0
   -3.6791    1.3299  -19.6460 C   0  0  0  0  0  0  0  0  0  0  0  0
   -3.3293    1.6776  -20.9169 C   0  0  0  0  0  0  0  0  0  0  0  0
   -4.0707    1.1895  -22.0162 C   0  0  0  0  0  0  0  0  0  0  0  0
   -5.1252    0.3313  -21.8307 C   0  0  0  0  0  0  0  0  0  0  0  0
   -5.5016   -0.0560  -20.5168 C   0  0  0  0  0  0  0  0  0  0  0  0
   -5.6717   -0.0353  -22.6937 H   0  0  0  0  0  0  0  0  0  0  0  0
   -3.7852    1.4927  -23.0160 H   0  0  0  0  0  0  0  0  0  0  0  0
   -2.4919    2.3463  -21.0846 H   0  0  0  0  0  0  0  0  0  0  0  0
   -3.1540    1.7223  -18.7809 H   0  0  0  0  0  0  0  0  0  0  0  0
   -4.6614    0.5400  -17.2607 H   0  0  0  0  0  0  0  0  0  0  0  0
   -7.7991   -1.7262  -18.6425 H   0  0  0  0  0  0  0  0  0  0  0  0
   -7.0147   -1.8638  -22.0133 H   0  0  0  0  0  0  0  0  0  0  0  0
   -9.8966   -2.7568  -22.6219 C   0  0  0  0  0  0  0  0  0  0  0  0
  -10.7771   -2.8488  -23.2680 H   0  0  0  0  0  0  0  0  0  0  0  0
  -10.1861   -3.0211  -21.6025 H   0  0  0  0  0  0  0  0  0  0  0  0
  -10.3256   -0.6723  -22.6752 H   0  0  0  0  0  0  0  0  0  0  0  0
   -8.6890    1.1112  -23.4185 H   0  0  0  0  0  0  0  0  0  0  0  0
   -6.3889    0.0451  -26.8899 H   0  0  0  0  0  0  0  0  0  0  0  0
   -6.9586   -2.3360  -26.5265 H   0  0  0  0  0  0  0  0  0  0  0  0
   -7.6612   -4.0504  -24.8586 H   0  0  0  0  0  0  0  0  0  0  0  0
   -9.3632   -3.7099  -25.1747 H   0  0  0  0  0  0  0  0  0  0  0  0
   -7.9572   -3.5236  -22.5563 H   0  0  0  0  0  0  0  0  0  0  0  0
  -10.0927   -5.3457  -23.5498 H   0  0  0  0  0  0  0  0  0  0  0  0
   -9.4293   -5.3386  -21.8978 H   0  0  0  0  0  0  0  0  0  0  0  0
   -7.0521   -6.1125  -22.4873 N   0  0  0  0  0  0  0  0  0  0  0  0
   -5.8169   -6.7267  -22.7534 C   0  0  0  0  0  0  0  0  0  0  0  0
   -5.1132   -7.3241  -21.7064 C   0  0  0  0  0  0  0  0  0  0  0  0
   -3.8692   -7.8821  -21.9412 C   0  0  0  0  0  0  0  0  0  0  0  0
   -3.3153   -7.8519  -23.2173 C   0  0  0  0  0  0  0  0  0  0  0  0
   -2.0758   -8.4725  -23.4910 N   0  0  0  0  0  0  0  0  0  0  0  0
   -1.9278   -9.1172  -24.7898 C   0  0  0  0  0  0  0  0  0  0  0  0
   -0.7447  -10.0629  -24.7813 C   0  0  0  0  0  0  0  0  0  0  0  0
    0.3909   -9.4052  -24.2718 O   0  0  0  0  0  0  0  0  0  0  0  0
    0.2244   -9.0878  -22.9138 C   0  0  0  0  0  0  0  0  0  0  0  0
   -1.0208   -8.2642  -22.6337 C   0  0  0  0  0  0  0  0  0  0  0  0
   -1.0717   -7.5020  -21.6828 O   0  0  0  0  0  0  0  0  0  0  0  0
    1.0951   -8.5171  -22.5935 H   0  0  0  0  0  0  0  0  0  0  0  0
    0.1666   -9.9961  -22.2936 H   0  0  0  0  0  0  0  0  0  0  0  0
   -0.5201  -10.3663  -25.8072 H   0  0  0  0  0  0  0  0  0  0  0  0
   -0.9505  -10.9604  -24.1880 H   0  0  0  0  0  0  0  0  0  0  0  0
   -1.7767   -8.3693  -25.5808 H   0  0  0  0  0  0  0  0  0  0  0  0
   -2.8521   -9.6577  -25.0146 H   0  0  0  0  0  0  0  0  0  0  0  0
   -4.0331   -7.2699  -24.2559 C   0  0  0  0  0  0  0  0  0  0  0  0
   -5.2788   -6.7153  -24.0385 C   0  0  0  0  0  0  0  0  0  0  0  0
   -5.8305   -6.3048  -24.8730 H   0  0  0  0  0  0  0  0  0  0  0  0
   -3.6252   -7.2798  -25.2607 H   0  0  0  0  0  0  0  0  0  0  0  0
   -3.3403   -8.4029  -21.1498 H   0  0  0  0  0  0  0  0  0  0  0  0
   -5.5520   -7.3869  -20.7117 H   0  0  0  0  0  0  0  0  0  0  0  0
   -7.1942   -5.7668  -21.5515 H   0  0  0  0  0  0  0  0  0  0  0  0
  1  2  2  0
  2  3  1  0
  3  4  1  0
  4  5  1  0
  5  6  1  0
  6  7  2  0
  7  8  1  0
  8  9  2  0
  9 10  1  0
  9 11  1  0
 11 12  2  0
 12 13  1  0
 13 14  1  0
 14 15  2  0
 14 16  1  0
 16 17  1  0
 17 18  2  0
 18 19  1  0
 19 20  2  0
 20 21  1  0
 21 22  2  0
 22 23  1  0
 23 24  2  0
 24 25  1  0
 25 26  2  0
 25 27  1  0
 24 28  1  0
 23 29  1  0
 22 30  1  0
 20 31  1  0
 18 32  1  0
 16 33  1  0
 13 34  1  0
 34 35  1  0
 34 36  1  0
 13 37  1  6
 11 38  1  0
  8 39  1  0
  7 40  1  0
  5 41  1  0
  5 42  1  0
  4 43  1  1
  3 44  1  0
  3 45  1  0
  2 46  1  0
 46 47  1  0
 47 48  2  0
 48 49  1  0
 49 50  2  0
 50 51  1  0
 51 52  1  0
 52 53  1  0
 53 54  1  0
 54 55  1  0
 55 56  1  0
 56 57  2  0
 55 58  1  0
 55 59  1  0
 53 60  1  0
 53 61  1  0
 52 62  1  0
 52 63  1  0
 50 64  1  0
 64 65  2  0
 65 66  1  0
 64 67  1  0
 49 68  1  0
 48 69  1  0
 46 70  1  0
 34  4  1  0
 65 47  1  0
 12  6  1  0
 26 17  1  0
 56 51  1  0
 26 21  1  0
M  CHG  1   4   1
M  END
>  <cnnaffinities>  (25) 
[6.25146]

>  <score>  (25) 
6.25146

>  <index>  (25) 
25

>  <Smiles>  (25) 
O=C(C([N@+]1(C(c2c(c(c(Cl)c(c2[C@](C(=O)N(c2c(nc(c3c(c(c(c(c23)[H])[H])[H])[H])[H])[H])[H])(C1([H])[H])[H])[H])[H])[H])([H])[H])[H])([H])[H])N(c1c(c(c(N2C(C(OC(C2=O)([H])[H])([H])[H])([H])[H])c(c1[H])[H])[H])[H])[H]

>  <h>  (25) 
<NA>

>  <Training>  (25) 
True

>  <Success>  (25) 
True

>  <enamine_searched>  (25) 
False

>  <enamine_id>  (25) 
nan

$$$$

     RDKit          3D

 55 60  0  0  0  0  0  0  0  0999 V2000
  -10.4150   -0.9764  -23.3655 C   0  0  0  0  0  0  0  0  0  0  0  0
   -8.9924   -1.3803  -22.9832 C   0  0  1  0  0  0  0  0  0  0  0  0
   -8.3886   -0.4795  -21.8967 C   0  0  0  0  0  0  0  0  0  0  0  0
   -7.4064   -1.3367  -21.2512 N   0  0  0  0  0  0  0  0  0  0  0  0
   -6.5976   -0.8701  -20.1910 C   0  0  0  0  0  0  0  0  0  0  0  0
   -6.8921   -1.1747  -18.8869 C   0  0  0  0  0  0  0  0  0  0  0  0
   -6.2300   -0.6546  -17.8229 N   0  0  0  0  0  0  0  0  0  0  0  0
   -5.2366    0.1685  -18.0644 C   0  0  0  0  0  0  0  0  0  0  0  0
   -4.8024    0.5377  -19.3706 C   0  0  0  0  0  0  0  0  0  0  0  0
   -3.6960    1.4004  -19.5973 C   0  0  0  0  0  0  0  0  0  0  0  0
   -3.3391    1.7419  -20.8745 C   0  0  0  0  0  0  0  0  0  0  0  0
   -4.0614    1.2362  -21.9786 C   0  0  0  0  0  0  0  0  0  0  0  0
   -5.1158    0.3802  -21.7853 C   0  0  0  0  0  0  0  0  0  0  0  0
   -5.5124    0.0164  -20.4721 C   0  0  0  0  0  0  0  0  0  0  0  0
   -5.6483   -0.0409  -22.6310 H   0  0  0  0  0  0  0  0  0  0  0  0
   -3.7608    1.5031  -22.9877 H   0  0  0  0  0  0  0  0  0  0  0  0
   -2.4912    2.3972  -21.0524 H   0  0  0  0  0  0  0  0  0  0  0  0
   -3.1441    1.7803  -18.7419 H   0  0  0  0  0  0  0  0  0  0  0  0
   -4.7154    0.5815  -17.2009 H   0  0  0  0  0  0  0  0  0  0  0  0
   -7.7065   -1.8590  -18.6528 H   0  0  0  0  0  0  0  0  0  0  0  0
   -7.6433   -2.6795  -21.4462 C   0  0  0  0  0  0  0  0  0  0  0  0
   -7.0052   -3.5719  -20.9237 O   0  0  0  0  0  0  0  0  0  0  0  0
   -8.8179   -2.8332  -22.4215 C   0  0  1  0  0  0  0  0  0  0  0  0
  -10.0389   -3.2619  -21.5751 C   0  0  0  0  0  0  0  0  0  0  0  0
  -11.1539   -3.7306  -22.3898 N   0  0  0  0  0  0  0  0  0  0  0  0
  -12.5315   -3.6390  -21.9044 C   0  0  0  0  0  0  0  0  0  0  0  0
  -13.3801   -2.5354  -22.4621 C   0  0  0  0  0  0  0  0  0  0  0  0
  -14.0853   -2.4485  -23.6760 C   0  0  0  0  0  0  0  0  0  0  0  0
  -14.7652   -1.3019  -23.7006 N   0  0  0  0  0  0  0  0  0  0  0  0
  -14.4577   -0.7535  -22.5432 N   0  0  0  0  0  0  0  0  0  0  0  0
  -13.6540   -1.4427  -21.7543 N   0  0  0  0  0  0  0  0  0  0  0  0
  -14.8601    0.1165  -22.2194 H   0  0  0  0  0  0  0  0  0  0  0  0
  -14.2121   -3.1767  -24.4615 H   0  0  0  0  0  0  0  0  0  0  0  0
  -12.5435   -3.5255  -20.8183 H   0  0  0  0  0  0  0  0  0  0  0  0
  -13.0230   -4.5645  -22.2066 H   0  0  0  0  0  0  0  0  0  0  0  0
  -10.9564   -4.5291  -23.4889 C   0  0  0  0  0  0  0  0  0  0  0  0
  -11.8994   -5.0585  -24.0652 O   0  0  0  0  0  0  0  0  0  0  0  0
   -9.5511   -4.7105  -23.9541 C   0  0  0  0  0  0  0  0  0  0  0  0
   -9.2966   -5.6947  -24.9096 C   0  0  0  0  0  0  0  0  0  0  0  0
   -8.0227   -5.8998  -25.4008 C   0  0  0  0  0  0  0  0  0  0  0  0
   -7.0129   -5.0684  -24.9327 C   0  0  0  0  0  0  0  0  0  0  0  0
   -5.7701   -5.2435  -25.4129 F   0  0  0  0  0  0  0  0  0  0  0  0
   -7.2371   -4.0848  -23.9860 C   0  0  0  0  0  0  0  0  0  0  0  0
   -8.5266   -3.8944  -23.4679 C   0  0  0  0  0  0  0  0  0  0  0  0
   -6.3901   -3.5157  -23.6207 H   0  0  0  0  0  0  0  0  0  0  0  0
   -7.7995   -6.6986  -26.1027 H   0  0  0  0  0  0  0  0  0  0  0  0
  -10.1298   -6.3005  -25.2476 H   0  0  0  0  0  0  0  0  0  0  0  0
  -10.3651   -2.4122  -20.9574 H   0  0  0  0  0  0  0  0  0  0  0  0
   -9.6980   -4.0508  -20.8986 H   0  0  0  0  0  0  0  0  0  0  0  0
   -9.1519   -0.1418  -21.1766 H   0  0  0  0  0  0  0  0  0  0  0  0
   -7.9205    0.4199  -22.3052 H   0  0  0  0  0  0  0  0  0  0  0  0
   -8.3464   -1.3275  -23.8682 H   0  0  0  0  0  0  0  0  0  0  0  0
  -10.4335   -0.0041  -23.8663 H   0  0  0  0  0  0  0  0  0  0  0  0
  -10.8621   -1.7198  -24.0320 H   0  0  0  0  0  0  0  0  0  0  0  0
  -11.0597   -0.9048  -22.4828 H   0  0  0  0  0  0  0  0  0  0  0  0
  1  2  1  0
  2  3  1  0
  3  4  1  0
  4  5  1  0
  5  6  2  0
  6  7  1  0
  7  8  2  0
  8  9  1  0
  9 10  2  0
 10 11  1  0
 11 12  2  0
 12 13  1  0
 13 14  2  0
 13 15  1  0
 12 16  1  0
 11 17  1  0
 10 18  1  0
  8 19  1  0
  6 20  1  0
  4 21  1  0
 21 22  2  0
 21 23  1  0
 23 24  1  1
 24 25  1  0
 25 26  1  0
 26 27  1  0
 27 28  1  0
 28 29  2  0
 29 30  1  0
 30 31  1  0
 30 32  1  0
 28 33  1  0
 26 34  1  0
 26 35  1  0
 25 36  1  0
 36 37  2  0
 36 38  1  0
 38 39  2  0
 39 40  1  0
 40 41  2  0
 41 42  1  0
 41 43  1  0
 43 44  2  0
 43 45  1  0
 40 46  1  0
 39 47  1  0
 24 48  1  0
 24 49  1  0
  3 50  1  0
  3 51  1  0
  2 52  1  6
  1 53  1  0
  1 54  1  0
  1 55  1  0
 23  2  1  0
 31 27  2  0
 44 38  1  0
 14  5  1  0
 44 23  1  0
 14  9  1  0
M  END
>  <cnnaffinities>  (26) 
[6.59197]

>  <score>  (26) 
6.59197

>  <index>  (26) 
26

>  <Smiles>  (26) 
C([C@]1(C(N(c2c(nc(c3c(c(c(c(c23)[H])[H])[H])[H])[H])[H])C(=O)[C@]21C(N(C(c1c(nn(n1)[H])[H])([H])[H])C(=O)c1c(c(c(F)c(c21)[H])[H])[H])([H])[H])([H])[H])[H])([H])([H])[H]

>  <h>  (26) 
<NA>

>  <Training>  (26) 
True

>  <Success>  (26) 
True

>  <enamine_searched>  (26) 
False

>  <enamine_id>  (26) 
nan

$$$$

     RDKit          3D

 58 62  0  0  0  0  0  0  0  0999 V2000
   -7.0465    3.5749  -22.0975 C   0  0  0  0  0  0  0  0  0  0  0  0
   -7.2895    2.5324  -23.1015 N   0  0  0  0  0  4  0  0  0  0  0  0
   -8.4467    2.8273  -23.9981 C   0  0  0  0  0  0  0  0  0  0  0  0
   -8.7248    1.6671  -24.9558 C   0  0  0  0  0  0  0  0  0  0  0  0
   -9.3812    0.5278  -24.3206 N   0  0  0  0  0  0  0  0  0  0  0  0
   -8.6756   -0.7325  -24.1894 C   0  0  0  0  0  0  0  0  0  0  0  0
   -9.0688   -1.4874  -22.8968 C   0  0  2  0  0  0  0  0  0  0  0  0
   -8.5314   -0.7314  -21.6561 C   0  0  0  0  0  0  0  0  0  0  0  0
   -8.9669    0.2955  -21.1718 O   0  0  0  0  0  0  0  0  0  0  0  0
   -7.4164   -1.3875  -21.1892 N   0  0  0  0  0  0  0  0  0  0  0  0
   -6.6068   -0.8092  -20.1714 C   0  0  0  0  0  0  0  0  0  0  0  0
   -6.9104   -1.0448  -18.8572 C   0  0  0  0  0  0  0  0  0  0  0  0
   -6.1989   -0.5602  -17.8105 N   0  0  0  0  0  0  0  0  0  0  0  0
   -5.1685    0.2024  -18.0834 C   0  0  0  0  0  0  0  0  0  0  0  0
   -4.7428    0.5382  -19.3987 C   0  0  0  0  0  0  0  0  0  0  0  0
   -3.6200    1.3776  -19.6384 C   0  0  0  0  0  0  0  0  0  0  0  0
   -3.2468    1.6899  -20.9162 C   0  0  0  0  0  0  0  0  0  0  0  0
   -3.9786    1.1756  -22.0081 C   0  0  0  0  0  0  0  0  0  0  0  0
   -5.0580    0.3485  -21.8056 C   0  0  0  0  0  0  0  0  0  0  0  0
   -5.4821    0.0151  -20.4896 C   0  0  0  0  0  0  0  0  0  0  0  0
   -5.5693   -0.0785  -22.6638 H   0  0  0  0  0  0  0  0  0  0  0  0
   -3.6623    1.4079  -23.0220 H   0  0  0  0  0  0  0  0  0  0  0  0
   -2.3792    2.3185  -21.1006 H   0  0  0  0  0  0  0  0  0  0  0  0
   -3.0806    1.7718  -18.7806 H   0  0  0  0  0  0  0  0  0  0  0  0
   -4.6212    0.6091  -17.2323 H   0  0  0  0  0  0  0  0  0  0  0  0
   -7.7639   -1.6686  -18.6007 H   0  0  0  0  0  0  0  0  0  0  0  0
   -7.0553   -2.5678  -21.9501 C   0  0  0  0  0  0  0  0  0  0  0  0
   -8.3135   -2.8535  -22.8003 C   0  0  2  0  0  0  0  0  0  0  0  0
   -7.9714   -3.5633  -24.1202 C   0  0  0  0  0  0  0  0  0  0  0  0
   -7.5151   -4.5455  -23.9349 H   0  0  0  0  0  0  0  0  0  0  0  0
   -8.8582   -3.7223  -24.7476 H   0  0  0  0  0  0  0  0  0  0  0  0
   -7.2502   -2.9793  -24.7101 H   0  0  0  0  0  0  0  0  0  0  0  0
   -8.9600   -3.5115  -22.2145 H   0  0  0  0  0  0  0  0  0  0  0  0
   -6.8017   -3.3944  -21.2739 H   0  0  0  0  0  0  0  0  0  0  0  0
   -6.1729   -2.3856  -22.5859 H   0  0  0  0  0  0  0  0  0  0  0  0
  -10.5832   -1.5579  -22.8302 C   0  0  0  0  0  0  0  0  0  0  0  0
  -11.2264   -2.5127  -22.0336 C   0  0  0  0  0  0  0  0  0  0  0  0
  -12.6029   -2.5157  -21.9572 C   0  0  0  0  0  0  0  0  0  0  0  0
  -13.2091   -3.4415  -21.1945 F   0  0  0  0  0  0  0  0  0  0  0  0
  -13.3904   -1.5885  -22.6300 C   0  0  0  0  0  0  0  0  0  0  0  0
  -12.7588   -0.6066  -23.3647 C   0  0  0  0  0  0  0  0  0  0  0  0
  -11.3669   -0.5690  -23.4466 C   0  0  0  0  0  0  0  0  0  0  0  0
  -10.7344    0.5976  -24.1509 C   0  0  0  0  0  0  0  0  0  0  0  0
  -11.3901    1.5588  -24.5351 O   0  0  0  0  0  0  0  0  0  0  0  0
  -13.3131    0.1721  -23.8767 H   0  0  0  0  0  0  0  0  0  0  0  0
  -14.4672   -1.6436  -22.5406 H   0  0  0  0  0  0  0  0  0  0  0  0
  -10.6862   -3.2398  -21.4379 H   0  0  0  0  0  0  0  0  0  0  0  0
   -8.8789   -1.3860  -25.0531 H   0  0  0  0  0  0  0  0  0  0  0  0
   -7.6032   -0.5092  -24.1555 H   0  0  0  0  0  0  0  0  0  0  0  0
   -7.7817    1.3090  -25.3877 H   0  0  0  0  0  0  0  0  0  0  0  0
   -9.3773    2.0142  -25.7614 H   0  0  0  0  0  0  0  0  0  0  0  0
   -9.3324    3.0129  -23.3809 H   0  0  0  0  0  0  0  0  0  0  0  0
   -8.2394    3.7366  -24.5736 H   0  0  0  0  0  0  0  0  0  0  0  0
   -6.4220    2.4075  -23.6774 H   0  0  0  0  0  0  0  0  0  0  0  0
   -7.5013    1.6402  -22.6021 H   0  0  0  0  0  0  0  0  0  0  0  0
   -6.1764    3.2993  -21.4991 H   0  0  0  0  0  0  0  0  0  0  0  0
   -7.9236    3.6793  -21.4503 H   0  0  0  0  0  0  0  0  0  0  0  0
   -6.8727    4.5502  -22.5685 H   0  0  0  0  0  0  0  0  0  0  0  0
  1  2  1  0
  2  3  1  0
  3  4  1  0
  4  5  1  0
  5  6  1  0
  7  6  1  6
  7  8  1  0
  8  9  2  0
  8 10  1  0
 10 11  1  0
 11 12  2  0
 12 13  1  0
 13 14  2  0
 14 15  1  0
 15 16  2  0
 16 17  1  0
 17 18  2  0
 18 19  1  0
 19 20  2  0
 19 21  1  0
 18 22  1  0
 17 23  1  0
 16 24  1  0
 14 25  1  0
 12 26  1  0
 10 27  1  0
 27 28  1  0
 28 29  1  0
 29 30  1  0
 29 31  1  0
 29 32  1  0
 28 33  1  1
 27 34  1  0
 27 35  1  0
  7 36  1  0
 36 37  2  0
 37 38  1  0
 38 39  1  0
 38 40  2  0
 40 41  1  0
 41 42  2  0
 42 43  1  0
 43 44  2  0
 41 45  1  0
 40 46  1  0
 37 47  1  0
  6 48  1  0
  6 49  1  0
  4 50  1  0
  4 51  1  0
  3 52  1  0
  3 53  1  0
  2 54  1  0
  2 55  1  0
  1 56  1  0
  1 57  1  0
  1 58  1  0
 43  5  1  0
 28  7  1  0
 42 36  1  0
 20 11  1  0
 20 15  1  0
M  CHG  1   2   1
M  END
>  <cnnaffinities>  (27) 
[5.86768]

>  <score>  (27) 
5.86768

>  <index>  (27) 
27

>  <Smiles>  (27) 
C([N+](C(C(N1C([C@@]2(C(=O)N(c3c(nc(c4c(c(c(c(c34)[H])[H])[H])[H])[H])[H])C([C@@]2(C([H])([H])[H])[H])([H])[H])c2c(c(F)c(c(c2C1=O)[H])[H])[H])([H])[H])([H])[H])([H])[H])([H])[H])([H])([H])[H]

>  <h>  (27) 
<NA>

>  <Training>  (27) 
True

>  <Success>  (27) 
True

>  <enamine_searched>  (27) 
False

>  <enamine_id>  (27) 
nan

$$$$

     RDKit          3D

 64 68  0  0  0  0  0  0  0  0999 V2000
   -7.4010    3.3531  -21.7994 C   0  0  0  0  0  0  0  0  0  0  0  0
   -8.3530    2.9098  -22.8044 N   0  0  0  0  0  0  0  0  0  0  0  0
   -7.8352    2.1918  -23.8423 C   0  0  0  0  0  0  0  0  0  0  0  0
   -6.6309    2.0260  -23.9869 O   0  0  0  0  0  0  0  0  0  0  0  0
   -8.8294    1.5936  -24.8344 C   0  0  0  0  0  0  0  0  0  0  0  0
   -9.4838    0.4283  -24.2845 N   0  0  0  0  0  0  0  0  0  0  0  0
   -8.7303   -0.8034  -24.1519 C   0  0  0  0  0  0  0  0  0  0  0  0
   -9.0873   -1.5556  -22.8500 C   0  0  2  0  0  0  0  0  0  0  0  0
   -8.5545   -0.7816  -21.6234 C   0  0  0  0  0  0  0  0  0  0  0  0
   -9.0385    0.2063  -21.1068 O   0  0  0  0  0  0  0  0  0  0  0  0
   -7.4030   -1.3980  -21.1950 N   0  0  0  0  0  0  0  0  0  0  0  0
   -6.6099   -0.8232  -20.1745 C   0  0  0  0  0  0  0  0  0  0  0  0
   -6.9256   -1.0557  -18.8611 C   0  0  0  0  0  0  0  0  0  0  0  0
   -6.2247   -0.5710  -17.8088 N   0  0  0  0  0  0  0  0  0  0  0  0
   -5.1906    0.1925  -18.0747 C   0  0  0  0  0  0  0  0  0  0  0  0
   -4.7598    0.5267  -19.3910 C   0  0  0  0  0  0  0  0  0  0  0  0
   -3.6379    1.3653  -19.6299 C   0  0  0  0  0  0  0  0  0  0  0  0
   -3.2685    1.6844  -20.9074 C   0  0  0  0  0  0  0  0  0  0  0  0
   -4.0041    1.1895  -22.0066 C   0  0  0  0  0  0  0  0  0  0  0  0
   -5.0794    0.3568  -21.8055 C   0  0  0  0  0  0  0  0  0  0  0  0
   -5.4865    0.0035  -20.4875 C   0  0  0  0  0  0  0  0  0  0  0  0
   -5.6324   -0.0121  -22.6647 H   0  0  0  0  0  0  0  0  0  0  0  0
   -3.7095    1.4519  -23.0180 H   0  0  0  0  0  0  0  0  0  0  0  0
   -2.4053    2.3173  -21.0863 H   0  0  0  0  0  0  0  0  0  0  0  0
   -3.0955    1.7537  -18.7730 H   0  0  0  0  0  0  0  0  0  0  0  0
   -4.6262    0.5855  -17.2286 H   0  0  0  0  0  0  0  0  0  0  0  0
   -7.7919   -1.6684  -18.6231 H   0  0  0  0  0  0  0  0  0  0  0  0
   -7.0331   -2.5801  -21.9390 C   0  0  0  0  0  0  0  0  0  0  0  0
   -8.3058   -2.8976  -22.7505 C   0  0  2  0  0  0  0  0  0  0  0  0
   -8.0120   -3.6280  -24.0677 C   0  0  0  0  0  0  0  0  0  0  0  0
   -7.3792   -5.2634  -23.7268 S   0  0  0  0  0  0  0  0  0  0  0  0
   -6.0087   -5.1883  -23.2455 O   0  0  0  0  0  0  0  0  0  0  0  0
   -8.3908   -5.9280  -22.9147 O   0  0  0  0  0  0  0  0  0  0  0  0
   -7.2616   -5.9432  -25.2467 N   0  0  0  0  0  0  0  0  0  0  0  0
   -8.4702   -6.3524  -25.9646 C   0  0  0  0  0  0  0  0  0  0  0  0
   -9.0047   -5.4720  -26.3317 H   0  0  0  0  0  0  0  0  0  0  0  0
   -9.1473   -6.9633  -25.3581 H   0  0  0  0  0  0  0  0  0  0  0  0
   -8.1570   -6.9264  -26.8427 H   0  0  0  0  0  0  0  0  0  0  0  0
   -6.5788   -6.6883  -25.1645 H   0  0  0  0  0  0  0  0  0  0  0  0
   -8.9261   -3.7632  -24.6550 H   0  0  0  0  0  0  0  0  0  0  0  0
   -7.2723   -3.1192  -24.6901 H   0  0  0  0  0  0  0  0  0  0  0  0
   -8.9108   -3.5870  -22.1632 H   0  0  0  0  0  0  0  0  0  0  0  0
   -6.1701   -2.3884  -22.5947 H   0  0  0  0  0  0  0  0  0  0  0  0
   -6.7590   -3.3928  -21.2599 H   0  0  0  0  0  0  0  0  0  0  0  0
  -10.5985   -1.6448  -22.7657 C   0  0  0  0  0  0  0  0  0  0  0  0
  -11.2145   -2.5688  -21.9184 C   0  0  0  0  0  0  0  0  0  0  0  0
  -12.5933   -2.5805  -21.8017 C   0  0  0  0  0  0  0  0  0  0  0  0
  -13.3398   -3.6706  -20.6757 Cl  0  0  0  0  0  0  0  0  0  0  0  0
  -13.4108   -1.7115  -22.5247 C   0  0  0  0  0  0  0  0  0  0  0  0
  -12.8060   -0.7649  -23.3219 C   0  0  0  0  0  0  0  0  0  0  0  0
  -11.4179   -0.7050  -23.4046 C   0  0  0  0  0  0  0  0  0  0  0  0
  -10.8369    0.4644  -24.1236 C   0  0  0  0  0  0  0  0  0  0  0  0
  -11.5228    1.4007  -24.5079 O   0  0  0  0  0  0  0  0  0  0  0  0
  -13.3760   -0.0252  -23.8728 H   0  0  0  0  0  0  0  0  0  0  0  0
  -14.4898   -1.7663  -22.4237 H   0  0  0  0  0  0  0  0  0  0  0  0
  -10.6252   -3.2650  -21.3307 H   0  0  0  0  0  0  0  0  0  0  0  0
   -7.6616   -0.5630  -24.1720 H   0  0  0  0  0  0  0  0  0  0  0  0
   -8.9515   -1.4636  -24.9996 H   0  0  0  0  0  0  0  0  0  0  0  0
   -9.6263    2.2973  -25.1011 H   0  0  0  0  0  0  0  0  0  0  0  0
   -8.2488    1.3206  -25.7219 H   0  0  0  0  0  0  0  0  0  0  0  0
   -9.3087    2.7588  -22.4951 H   0  0  0  0  0  0  0  0  0  0  0  0
   -6.7736    2.5081  -21.4799 H   0  0  0  0  0  0  0  0  0  0  0  0
   -6.7426    4.1209  -22.2178 H   0  0  0  0  0  0  0  0  0  0  0  0
   -7.9322    3.7741  -20.9445 H   0  0  0  0  0  0  0  0  0  0  0  0
  1  2  1  0
  2  3  1  0
  3  4  2  0
  3  5  1  0
  5  6  1  0
  6  7  1  0
  8  7  1  6
  8  9  1  0
  9 10  2  0
  9 11  1  0
 11 12  1  0
 12 13  2  0
 13 14  1  0
 14 15  2  0
 15 16  1  0
 16 17  2  0
 17 18  1  0
 18 19  2  0
 19 20  1  0
 20 21  2  0
 20 22  1  0
 19 23  1  0
 18 24  1  0
 17 25  1  0
 15 26  1  0
 13 27  1  0
 11 28  1  0
 28 29  1  0
 29 30  1  0
 30 31  1  0
 31 32  2  0
 31 33  2  0
 31 34  1  0
 34 35  1  0
 35 36  1  0
 35 37  1  0
 35 38  1  0
 34 39  1  0
 30 40  1  0
 30 41  1  0
 29 42  1  1
 28 43  1  0
 28 44  1  0
  8 45  1  0
 45 46  2  0
 46 47  1  0
 47 48  1  0
 47 49  2  0
 49 50  1  0
 50 51  2  0
 51 52  1  0
 52 53  2  0
 50 54  1  0
 49 55  1  0
 46 56  1  0
  7 57  1  0
  7 58  1  0
  5 59  1  0
  5 60  1  0
  2 61  1  0
  1 62  1  0
  1 63  1  0
  1 64  1  0
 52  6  1  0
 29  8  1  0
 51 45  1  0
 21 12  1  0
 21 16  1  0
M  END
>  <cnnaffinities>  (28) 
[6.36346, 6.77073]

>  <score>  (28) 
6.36346

>  <index>  (28) 
28

>  <Smiles>  (28) 
C(N(C(=O)C(N1C([C@@]2(C(=O)N(c3c(nc(c4c(c(c(c(c34)[H])[H])[H])[H])[H])[H])C([C@@]2(C(S(=O)(=O)N(C([H])([H])[H])[H])([H])[H])[H])([H])[H])c2c(c(Cl)c(c(c2C1=O)[H])[H])[H])([H])[H])([H])[H])[H])([H])([H])[H]

>  <h>  (28) 
<NA>

>  <Training>  (28) 
True

>  <Success>  (28) 
True

>  <enamine_searched>  (28) 
False

>  <enamine_id>  (28) 
nan

$$$$

     RDKit          3D

 55 60  0  0  0  0  0  0  0  0999 V2000
  -10.4151   -0.9766  -23.3653 C   0  0  0  0  0  0  0  0  0  0  0  0
   -8.9924   -1.3804  -22.9831 C   0  0  1  0  0  0  0  0  0  0  0  0
   -8.3886   -0.4796  -21.8967 C   0  0  0  0  0  0  0  0  0  0  0  0
   -7.4063   -1.3368  -21.2511 N   0  0  0  0  0  0  0  0  0  0  0  0
   -6.5975   -0.8701  -20.1910 C   0  0  0  0  0  0  0  0  0  0  0  0
   -6.8921   -1.1746  -18.8869 C   0  0  0  0  0  0  0  0  0  0  0  0
   -6.2301   -0.6545  -17.8229 N   0  0  0  0  0  0  0  0  0  0  0  0
   -5.2366    0.1685  -18.0644 C   0  0  0  0  0  0  0  0  0  0  0  0
   -4.8024    0.5377  -19.3706 C   0  0  0  0  0  0  0  0  0  0  0  0
   -3.6959    1.4004  -19.5974 C   0  0  0  0  0  0  0  0  0  0  0  0
   -3.3390    1.7418  -20.8746 C   0  0  0  0  0  0  0  0  0  0  0  0
   -4.0613    1.2362  -21.9786 C   0  0  0  0  0  0  0  0  0  0  0  0
   -5.1157    0.3801  -21.7854 C   0  0  0  0  0  0  0  0  0  0  0  0
   -5.5124    0.0164  -20.4721 C   0  0  0  0  0  0  0  0  0  0  0  0
   -5.6482   -0.0410  -22.6310 H   0  0  0  0  0  0  0  0  0  0  0  0
   -3.7608    1.5030  -22.9877 H   0  0  0  0  0  0  0  0  0  0  0  0
   -2.4910    2.3971  -21.0524 H   0  0  0  0  0  0  0  0  0  0  0  0
   -3.1441    1.7803  -18.7419 H   0  0  0  0  0  0  0  0  0  0  0  0
   -4.7153    0.5816  -17.2010 H   0  0  0  0  0  0  0  0  0  0  0  0
   -7.7065   -1.8589  -18.6528 H   0  0  0  0  0  0  0  0  0  0  0  0
   -7.6433   -2.6796  -21.4461 C   0  0  0  0  0  0  0  0  0  0  0  0
   -7.0051   -3.5720  -20.9237 O   0  0  0  0  0  0  0  0  0  0  0  0
   -8.8179   -2.8334  -22.4214 C   0  0  1  0  0  0  0  0  0  0  0  0
  -10.0389   -3.2620  -21.5750 C   0  0  0  0  0  0  0  0  0  0  0  0
  -11.1539   -3.7307  -22.3897 N   0  0  0  0  0  0  0  0  0  0  0  0
  -12.5314   -3.6392  -21.9043 C   0  0  0  0  0  0  0  0  0  0  0  0
  -13.3799   -2.5355  -22.4620 C   0  0  0  0  0  0  0  0  0  0  0  0
  -14.0850   -2.4487  -23.6757 C   0  0  0  0  0  0  0  0  0  0  0  0
  -14.7652   -1.3023  -23.7004 N   0  0  0  0  0  0  0  0  0  0  0  0
  -14.4577   -0.7536  -22.5432 N   0  0  0  0  0  0  0  0  0  0  0  0
  -13.6541   -1.4429  -21.7541 N   0  0  0  0  0  0  0  0  0  0  0  0
  -14.8602    0.1163  -22.2194 H   0  0  0  0  0  0  0  0  0  0  0  0
  -14.2121   -3.1770  -24.4613 H   0  0  0  0  0  0  0  0  0  0  0  0
  -12.5436   -3.5257  -20.8183 H   0  0  0  0  0  0  0  0  0  0  0  0
  -13.0229   -4.5646  -22.2065 H   0  0  0  0  0  0  0  0  0  0  0  0
  -10.9564   -4.5291  -23.4888 C   0  0  0  0  0  0  0  0  0  0  0  0
  -11.8994   -5.0583  -24.0652 O   0  0  0  0  0  0  0  0  0  0  0  0
   -9.5511   -4.7106  -23.9539 C   0  0  0  0  0  0  0  0  0  0  0  0
   -9.2967   -5.6948  -24.9095 C   0  0  0  0  0  0  0  0  0  0  0  0
   -8.0228   -5.8999  -25.4009 C   0  0  0  0  0  0  0  0  0  0  0  0
   -7.0129   -5.0683  -24.9329 C   0  0  0  0  0  0  0  0  0  0  0  0
   -5.7701   -5.2433  -25.4130 F   0  0  0  0  0  0  0  0  0  0  0  0
   -7.2370   -4.0848  -23.9860 C   0  0  0  0  0  0  0  0  0  0  0  0
   -8.5266   -3.8945  -23.4679 C   0  0  0  0  0  0  0  0  0  0  0  0
   -6.3901   -3.5157  -23.6206 H   0  0  0  0  0  0  0  0  0  0  0  0
   -7.7994   -6.6986  -26.1027 H   0  0  0  0  0  0  0  0  0  0  0  0
  -10.1297   -6.3006  -25.2475 H   0  0  0  0  0  0  0  0  0  0  0  0
  -10.3651   -2.4124  -20.9572 H   0  0  0  0  0  0  0  0  0  0  0  0
   -9.6980   -4.0508  -20.8985 H   0  0  0  0  0  0  0  0  0  0  0  0
   -9.1519   -0.1417  -21.1766 H   0  0  0  0  0  0  0  0  0  0  0  0
   -7.9205    0.4198  -22.3052 H   0  0  0  0  0  0  0  0  0  0  0  0
   -8.3464   -1.3276  -23.8682 H   0  0  0  0  0  0  0  0  0  0  0  0
  -10.4337   -0.0043  -23.8662 H   0  0  0  0  0  0  0  0  0  0  0  0
  -10.8621   -1.7200  -24.0318 H   0  0  0  0  0  0  0  0  0  0  0  0
  -11.0596   -0.9050  -22.4826 H   0  0  0  0  0  0  0  0  0  0  0  0
  1  2  1  0
  2  3  1  0
  3  4  1  0
  4  5  1  0
  5  6  2  0
  6  7  1  0
  7  8  2  0
  8  9  1  0
  9 10  2  0
 10 11  1  0
 11 12  2  0
 12 13  1  0
 13 14  2  0
 13 15  1  0
 12 16  1  0
 11 17  1  0
 10 18  1  0
  8 19  1  0
  6 20  1  0
  4 21  1  0
 21 22  2  0
 21 23  1  0
 23 24  1  1
 24 25  1  0
 25 26  1  0
 26 27  1  0
 27 28  1  0
 28 29  2  0
 29 30  1  0
 30 31  1  0
 30 32  1  0
 28 33  1  0
 26 34  1  0
 26 35  1  0
 25 36  1  0
 36 37  2  0
 36 38  1  0
 38 39  2  0
 39 40  1  0
 40 41  2  0
 41 42  1  0
 41 43  1  0
 43 44  2  0
 43 45  1  0
 40 46  1  0
 39 47  1  0
 24 48  1  0
 24 49  1  0
  3 50  1  0
  3 51  1  0
  2 52  1  6
  1 53  1  0
  1 54  1  0
  1 55  1  0
 23  2  1  0
 31 27  2  0
 44 38  1  0
 14  5  1  0
 44 23  1  0
 14  9  1  0
M  END
>  <cnnaffinities>  (29) 
[6.59192]

>  <score>  (29) 
6.59192

>  <index>  (29) 
29

>  <Smiles>  (29) 
C([C@]1(C(N(c2c(nc(c3c(c(c(c(c23)[H])[H])[H])[H])[H])[H])C(=O)[C@]21C(N(C(c1c(nn(n1)[H])[H])([H])[H])C(=O)c1c(c(c(F)c(c21)[H])[H])[H])([H])[H])([H])[H])[H])([H])([H])[H]

>  <h>  (29) 
<NA>

>  <Training>  (29) 
True

>  <Success>  (29) 
True

>  <enamine_searched>  (29) 
False

>  <enamine_id>  (29) 
nan

$$$$

     RDKit          3D

 58 63  0  0  0  0  0  0  0  0999 V2000
  -10.3925   -0.9338  -23.5341 C   0  0  0  0  0  0  0  0  0  0  0  0
   -9.0089   -1.4087  -23.1049 C   0  0  1  0  0  0  0  0  0  0  0  0
   -8.4715   -0.5315  -21.9615 C   0  0  0  0  0  0  0  0  0  0  0  0
   -7.4909   -1.3753  -21.3033 N   0  0  0  0  0  0  0  0  0  0  0  0
   -6.6757   -0.9080  -20.2390 C   0  0  0  0  0  0  0  0  0  0  0  0
   -6.9300   -1.2540  -18.9356 C   0  0  0  0  0  0  0  0  0  0  0  0
   -6.2598   -0.7533  -17.8650 N   0  0  0  0  0  0  0  0  0  0  0  0
   -5.2918    0.1007  -18.0902 C   0  0  0  0  0  0  0  0  0  0  0  0
   -4.8916    0.5111  -19.3907 C   0  0  0  0  0  0  0  0  0  0  0  0
   -3.8050    1.4042  -19.5873 C   0  0  0  0  0  0  0  0  0  0  0  0
   -3.4340    1.7633  -20.8534 C   0  0  0  0  0  0  0  0  0  0  0  0
   -4.1315    1.2551  -21.9725 C   0  0  0  0  0  0  0  0  0  0  0  0
   -5.1863    0.3900  -21.8053 C   0  0  0  0  0  0  0  0  0  0  0  0
   -5.5993    0.0014  -20.5038 C   0  0  0  0  0  0  0  0  0  0  0  0
   -5.7022   -0.0143  -22.6689 H   0  0  0  0  0  0  0  0  0  0  0  0
   -3.8215    1.5433  -22.9734 H   0  0  0  0  0  0  0  0  0  0  0  0
   -2.6026    2.4457  -21.0097 H   0  0  0  0  0  0  0  0  0  0  0  0
   -3.2851    1.7941  -18.7140 H   0  0  0  0  0  0  0  0  0  0  0  0
   -4.7613    0.5032  -17.2237 H   0  0  0  0  0  0  0  0  0  0  0  0
   -7.7182   -1.9647  -18.6984 H   0  0  0  0  0  0  0  0  0  0  0  0
   -7.7292   -2.7163  -21.5215 C   0  0  0  0  0  0  0  0  0  0  0  0
   -7.1258   -3.6155  -20.9665 O   0  0  0  0  0  0  0  0  0  0  0  0
   -8.8582   -2.8867  -22.5718 C   0  0  1  0  0  0  0  0  0  0  0  0
  -10.1070   -3.4145  -21.8192 C   0  0  0  0  0  0  0  0  0  0  0  0
  -11.1363   -3.9845  -22.6869 N   0  0  0  0  0  0  0  0  0  0  0  0
  -12.5316   -3.9528  -22.2397 C   0  0  0  0  0  0  0  0  0  0  0  0
  -13.2816   -2.7274  -22.6795 C   0  0  0  0  0  0  0  0  0  0  0  0
  -13.9122   -2.6541  -23.8793 C   0  0  0  0  0  0  0  0  0  0  0  0
  -14.3031   -1.3839  -24.4432 C   0  0  0  0  0  0  0  0  0  0  0  0
  -14.6578   -1.1857  -25.5896 O   0  0  0  0  0  0  0  0  0  0  0  0
  -14.2544   -0.3550  -23.4858 N   0  0  0  0  0  0  0  0  0  0  0  0
  -13.7637   -0.5729  -22.2316 C   0  0  0  0  0  0  0  0  0  0  0  0
  -13.2619   -1.6779  -21.7920 N   0  0  0  0  0  0  0  0  0  0  0  0
  -13.7620    0.2920  -21.6009 H   0  0  0  0  0  0  0  0  0  0  0  0
  -14.6619    0.5485  -23.7079 H   0  0  0  0  0  0  0  0  0  0  0  0
  -14.1411   -3.5364  -24.4557 H   0  0  0  0  0  0  0  0  0  0  0  0
  -12.5436   -3.9755  -21.1498 H   0  0  0  0  0  0  0  0  0  0  0  0
  -13.0195   -4.8389  -22.6439 H   0  0  0  0  0  0  0  0  0  0  0  0
  -10.8423   -4.7582  -23.7817 C   0  0  0  0  0  0  0  0  0  0  0  0
  -11.7065   -5.3531  -24.4051 O   0  0  0  0  0  0  0  0  0  0  0  0
   -9.4021   -4.8057  -24.1808 C   0  0  0  0  0  0  0  0  0  0  0  0
   -9.0164   -5.7406  -25.1453 C   0  0  0  0  0  0  0  0  0  0  0  0
   -7.6920   -5.8721  -25.5185 C   0  0  0  0  0  0  0  0  0  0  0  0
   -6.7662   -5.0300  -24.9164 C   0  0  0  0  0  0  0  0  0  0  0  0
   -5.4729   -5.1657  -25.2505 F   0  0  0  0  0  0  0  0  0  0  0  0
   -7.1296   -4.0529  -24.0094 C   0  0  0  0  0  0  0  0  0  0  0  0
   -8.4660   -3.9334  -23.6085 C   0  0  0  0  0  0  0  0  0  0  0  0
   -6.3637   -3.4063  -23.5974 H   0  0  0  0  0  0  0  0  0  0  0  0
   -7.3686   -6.6058  -26.2518 H   0  0  0  0  0  0  0  0  0  0  0  0
   -9.7889   -6.3598  -25.5919 H   0  0  0  0  0  0  0  0  0  0  0  0
  -10.5747   -2.6040  -21.2522 H   0  0  0  0  0  0  0  0  0  0  0  0
   -9.7588   -4.1650  -21.0983 H   0  0  0  0  0  0  0  0  0  0  0  0
   -9.2791   -0.2651  -21.2601 H   0  0  0  0  0  0  0  0  0  0  0  0
   -8.0290    0.4094  -22.3037 H   0  0  0  0  0  0  0  0  0  0  0  0
   -8.3240   -1.3242  -23.9590 H   0  0  0  0  0  0  0  0  0  0  0  0
  -11.0591   -0.8625  -22.6690 H   0  0  0  0  0  0  0  0  0  0  0  0
  -10.8527   -1.6048  -24.2639 H   0  0  0  0  0  0  0  0  0  0  0  0
  -10.3206    0.0665  -23.9780 H   0  0  0  0  0  0  0  0  0  0  0  0
  1  2  1  0
  2  3  1  0
  3  4  1  0
  4  5  1  0
  5  6  2  0
  6  7  1  0
  7  8  2  0
  8  9  1  0
  9 10  2  0
 10 11  1  0
 11 12  2  0
 12 13  1  0
 13 14  2  0
 13 15  1  0
 12 16  1  0
 11 17  1  0
 10 18  1  0
  8 19  1  0
  6 20  1  0
  4 21  1  0
 21 22  2  0
 21 23  1  0
 23 24  1  1
 24 25  1  0
 25 26  1  0
 26 27  1  0
 27 28  2  0
 28 29  1  0
 29 30  2  0
 29 31  1  0
 31 32  1  0
 32 33  2  0
 32 34  1  0
 31 35  1  0
 28 36  1  0
 26 37  1  0
 26 38  1  0
 25 39  1  0
 39 40  2  0
 39 41  1  0
 41 42  2  0
 42 43  1  0
 43 44  2  0
 44 45  1  0
 44 46  1  0
 46 47  2  0
 46 48  1  0
 43 49  1  0
 42 50  1  0
 24 51  1  0
 24 52  1  0
  3 53  1  0
  3 54  1  0
  2 55  1  6
  1 56  1  0
  1 57  1  0
  1 58  1  0
 23  2  1  0
 33 27  1  0
 47 41  1  0
 14  5  1  0
 47 23  1  0
 14  9  1  0
M  END
>  <cnnaffinities>  (30) 
[6.30084]

>  <score>  (30) 
6.30084

>  <index>  (30) 
30

>  <Smiles>  (30) 
C([C@]1(C(N(c2c(nc(c3c(c(c(c(c23)[H])[H])[H])[H])[H])[H])C(=O)[C@]21C(N(C(c1c(c(=O)n(c(n1)[H])[H])[H])([H])[H])C(=O)c1c(c(c(F)c(c21)[H])[H])[H])([H])[H])([H])[H])[H])([H])([H])[H]

>  <h>  (30) 
<NA>

>  <Training>  (30) 
True

>  <Success>  (30) 
True

>  <enamine_searched>  (30) 
False

>  <enamine_id>  (30) 
nan

$$$$

     RDKit          3D

 66 71  0  0  0  0  0  0  0  0999 V2000
   -7.8312   -6.0238  -26.6753 C   0  0  0  0  0  0  0  0  0  0  0  0
   -8.0159   -4.6114  -26.9578 N   0  0  0  0  0  0  0  0  0  0  0  0
   -7.1127   -3.6950  -26.5429 C   0  0  0  0  0  0  0  0  0  0  0  0
   -6.0971   -3.9718  -25.9134 O   0  0  0  0  0  0  0  0  0  0  0  0
   -7.4968   -2.2386  -26.8122 C   0  0  0  0  0  0  0  0  0  0  0  0
   -8.4059   -1.7406  -25.7821 N   0  0  0  0  0  0  0  0  0  0  0  0
   -7.8704   -1.2933  -24.5000 C   0  0  0  0  0  0  0  0  0  0  0  0
   -8.7693   -1.5771  -23.2544 C   0  0  2  0  0  0  0  0  0  0  0  0
   -8.2502   -0.6274  -22.1539 C   0  0  0  0  0  0  0  0  0  0  0  0
   -8.4388    0.5674  -22.0687 O   0  0  0  0  0  0  0  0  0  0  0  0
   -7.4496   -1.3507  -21.2868 N   0  0  0  0  0  0  0  0  0  0  0  0
   -6.6829   -0.7718  -20.2460 C   0  0  0  0  0  0  0  0  0  0  0  0
   -6.9615   -1.1015  -18.9409 C   0  0  0  0  0  0  0  0  0  0  0  0
   -6.2785   -0.6411  -17.8667 N   0  0  0  0  0  0  0  0  0  0  0  0
   -5.2643    0.1585  -18.0939 C   0  0  0  0  0  0  0  0  0  0  0  0
   -4.8397    0.5540  -19.3928 C   0  0  0  0  0  0  0  0  0  0  0  0
   -3.7139    1.4000  -19.5780 C   0  0  0  0  0  0  0  0  0  0  0  0
   -3.3197    1.7620  -20.8363 C   0  0  0  0  0  0  0  0  0  0  0  0
   -4.0313    1.2936  -21.9625 C   0  0  0  0  0  0  0  0  0  0  0  0
   -5.1176    0.4704  -21.8086 C   0  0  0  0  0  0  0  0  0  0  0  0
   -5.5628    0.0862  -20.5113 C   0  0  0  0  0  0  0  0  0  0  0  0
   -5.6504    0.1156  -22.6853 H   0  0  0  0  0  0  0  0  0  0  0  0
   -3.7016    1.5713  -22.9594 H   0  0  0  0  0  0  0  0  0  0  0  0
   -2.4670    2.4184  -20.9832 H   0  0  0  0  0  0  0  0  0  0  0  0
   -3.1828    1.7553  -18.7008 H   0  0  0  0  0  0  0  0  0  0  0  0
   -4.7186    0.5249  -17.2264 H   0  0  0  0  0  0  0  0  0  0  0  0
   -7.7988   -1.7648  -18.7219 H   0  0  0  0  0  0  0  0  0  0  0  0
   -7.3581   -2.7623  -21.6096 C   0  0  0  0  0  0  0  0  0  0  0  0
   -8.5483   -2.9565  -22.5571 C   0  0  2  0  0  0  0  0  0  0  0  0
   -8.4446   -4.1390  -23.5194 C   0  0  0  0  0  0  0  0  0  0  0  0
   -8.3484   -5.4377  -22.8760 N   0  0  0  0  0  0  0  0  0  0  0  0
   -7.1704   -5.9541  -22.4196 C   0  0  0  0  0  0  0  0  0  0  0  0
   -5.9347   -5.6576  -23.0325 C   0  0  0  0  0  0  0  0  0  0  0  0
   -4.8228   -6.2352  -22.4500 C   0  0  0  0  0  0  0  0  0  0  0  0
   -4.8830   -7.0067  -21.3600 N   0  0  0  0  0  0  0  0  0  0  0  0
   -6.1035   -7.2371  -20.8981 C   0  0  0  0  0  0  0  0  0  0  0  0
   -7.2564   -6.7854  -21.3724 N   0  0  0  0  0  0  0  0  0  0  0  0
   -6.1651   -7.8630  -20.0115 H   0  0  0  0  0  0  0  0  0  0  0  0
   -3.8240   -6.0718  -22.8547 H   0  0  0  0  0  0  0  0  0  0  0  0
   -5.8798   -5.0110  -23.9072 H   0  0  0  0  0  0  0  0  0  0  0  0
   -9.1389   -5.6795  -22.2917 H   0  0  0  0  0  0  0  0  0  0  0  0
   -9.3454   -4.1273  -24.1465 H   0  0  0  0  0  0  0  0  0  0  0  0
   -7.5754   -4.0071  -24.1627 H   0  0  0  0  0  0  0  0  0  0  0  0
   -9.4420   -3.1136  -21.9310 H   0  0  0  0  0  0  0  0  0  0  0  0
   -7.4322   -3.3613  -20.6974 H   0  0  0  0  0  0  0  0  0  0  0  0
   -6.3891   -2.9990  -22.0844 H   0  0  0  0  0  0  0  0  0  0  0  0
  -10.2271   -1.3771  -23.6155 C   0  0  0  0  0  0  0  0  0  0  0  0
  -11.2001   -1.1957  -22.6193 C   0  0  0  0  0  0  0  0  0  0  0  0
  -12.5289   -1.0349  -22.9808 C   0  0  0  0  0  0  0  0  0  0  0  0
  -13.7643   -0.8473  -21.7753 Cl  0  0  0  0  0  0  0  0  0  0  0  0
  -12.9346   -1.0411  -24.3125 C   0  0  0  0  0  0  0  0  0  0  0  0
  -11.9875   -1.2651  -25.2891 C   0  0  0  0  0  0  0  0  0  0  0  0
  -10.6579   -1.4780  -24.9420 C   0  0  0  0  0  0  0  0  0  0  0  0
   -9.7335   -1.9079  -26.0245 C   0  0  0  0  0  0  0  0  0  0  0  0
  -10.1426   -2.4248  -27.0663 O   0  0  0  0  0  0  0  0  0  0  0  0
  -12.2564   -1.2928  -26.3380 H   0  0  0  0  0  0  0  0  0  0  0  0
  -13.9828   -0.8993  -24.5463 H   0  0  0  0  0  0  0  0  0  0  0  0
  -10.9176   -1.1707  -21.5720 H   0  0  0  0  0  0  0  0  0  0  0  0
   -7.7070   -0.2080  -24.5335 H   0  0  0  0  0  0  0  0  0  0  0  0
   -6.9000   -1.7914  -24.3745 H   0  0  0  0  0  0  0  0  0  0  0  0
   -6.5796   -1.6471  -26.8645 H   0  0  0  0  0  0  0  0  0  0  0  0
   -8.0273   -2.1774  -27.7608 H   0  0  0  0  0  0  0  0  0  0  0  0
   -8.9048   -4.2687  -27.2956 H   0  0  0  0  0  0  0  0  0  0  0  0
   -7.5922   -6.1779  -25.6150 H   0  0  0  0  0  0  0  0  0  0  0  0
   -8.7552   -6.5523  -26.9131 H   0  0  0  0  0  0  0  0  0  0  0  0
   -7.0187   -6.4444  -27.2758 H   0  0  0  0  0  0  0  0  0  0  0  0
  1  2  1  0
  2  3  1  0
  3  4  2  0
  3  5  1  0
  5  6  1  0
  6  7  1  0
  8  7  1  6
  8  9  1  0
  9 10  2  0
  9 11  1  0
 11 12  1  0
 12 13  2  0
 13 14  1  0
 14 15  2  0
 15 16  1  0
 16 17  2  0
 17 18  1  0
 18 19  2  0
 19 20  1  0
 20 21  2  0
 20 22  1  0
 19 23  1  0
 18 24  1  0
 17 25  1  0
 15 26  1  0
 13 27  1  0
 11 28  1  0
 28 29  1  0
 29 30  1  0
 30 31  1  0
 31 32  1  0
 32 33  2  0
 33 34  1  0
 34 35  2  0
 35 36  1  0
 36 37  2  0
 36 38  1  0
 34 39  1  0
 33 40  1  0
 31 41  1  0
 30 42  1  0
 30 43  1  0
 29 44  1  1
 28 45  1  0
 28 46  1  0
  8 47  1  0
 47 48  2  0
 48 49  1  0
 49 50  1  0
 49 51  2  0
 51 52  1  0
 52 53  2  0
 53 54  1  0
 54 55  2  0
 52 56  1  0
 51 57  1  0
 48 58  1  0
  7 59  1  0
  7 60  1  0
  5 61  1  0
  5 62  1  0
  2 63  1  0
  1 64  1  0
  1 65  1  0
  1 66  1  0
 54  6  1  0
 29  8  1  0
 37 32  1  0
 53 47  1  0
 21 12  1  0
 21 16  1  0
M  END
>  <cnnaffinities>  (31) 
[6.18706]

>  <score>  (31) 
6.18706

>  <index>  (31) 
31

>  <Smiles>  (31) 
C(N(C(=O)C(N1C([C@@]2(C(=O)N(c3c(nc(c4c(c(c(c(c34)[H])[H])[H])[H])[H])[H])C([C@@]2(C(N(c2c(c(nc(n2)[H])[H])[H])[H])([H])[H])[H])([H])[H])c2c(c(Cl)c(c(c2C1=O)[H])[H])[H])([H])[H])([H])[H])[H])([H])([H])[H]

>  <h>  (31) 
<NA>

>  <Training>  (31) 
True

>  <Success>  (31) 
True

>  <enamine_searched>  (31) 
False

>  <enamine_id>  (31) 
nan

$$$$

     RDKit          3D

 57 62  0  0  0  0  0  0  0  0999 V2000
   -8.2336   -4.1119  -23.5460 C   0  0  0  0  0  0  0  0  0  0  0  0
   -8.5013   -2.9723  -22.5657 C   0  0  1  0  0  0  0  0  0  0  0  0
   -7.3776   -2.7944  -21.5327 C   0  0  0  0  0  0  0  0  0  0  0  0
   -7.4171   -1.3813  -21.2075 N   0  0  0  0  0  0  0  0  0  0  0  0
   -6.6151   -0.8033  -20.1863 C   0  0  0  0  0  0  0  0  0  0  0  0
   -6.8984   -1.0595  -18.8699 C   0  0  0  0  0  0  0  0  0  0  0  0
   -6.1994   -0.5659  -17.8179 N   0  0  0  0  0  0  0  0  0  0  0  0
   -5.1715    0.2046  -18.0829 C   0  0  0  0  0  0  0  0  0  0  0  0
   -4.7399    0.5292  -19.3979 C   0  0  0  0  0  0  0  0  0  0  0  0
   -3.6064    1.3574  -19.6281 C   0  0  0  0  0  0  0  0  0  0  0  0
   -3.2102    1.6461  -20.9037 C   0  0  0  0  0  0  0  0  0  0  0  0
   -3.9321    1.1215  -21.9996 C   0  0  0  0  0  0  0  0  0  0  0  0
   -5.0097    0.3000  -21.8032 C   0  0  0  0  0  0  0  0  0  0  0  0
   -5.4703    0.0060  -20.4913 C   0  0  0  0  0  0  0  0  0  0  0  0
   -5.5158   -0.1361  -22.6582 H   0  0  0  0  0  0  0  0  0  0  0  0
   -3.5936    1.3307  -23.0097 H   0  0  0  0  0  0  0  0  0  0  0  0
   -2.3350    2.2631  -21.0887 H   0  0  0  0  0  0  0  0  0  0  0  0
   -3.0734    1.7595  -18.7692 H   0  0  0  0  0  0  0  0  0  0  0  0
   -4.6261    0.6136  -17.2311 H   0  0  0  0  0  0  0  0  0  0  0  0
   -7.7470   -1.6894  -18.6082 H   0  0  0  0  0  0  0  0  0  0  0  0
   -8.1388   -0.6231  -22.1048 C   0  0  0  0  0  0  0  0  0  0  0  0
   -8.2462    0.5856  -22.0355 O   0  0  0  0  0  0  0  0  0  0  0  0
   -8.7294   -1.5500  -23.1934 C   0  0  1  0  0  0  0  0  0  0  0  0
   -7.9525   -1.2601  -24.4998 C   0  0  0  0  0  0  0  0  0  0  0  0
   -8.5740   -1.8127  -25.7016 N   0  0  0  0  0  0  0  0  0  0  0  0
   -7.6911   -2.0467  -26.8376 C   0  0  0  0  0  0  0  0  0  0  0  0
   -6.9247   -3.3294  -26.7252 C   0  0  0  0  0  0  0  0  0  0  0  0
   -5.6890   -3.4794  -26.2911 N   0  0  0  0  0  0  0  0  0  0  0  0
   -5.4340   -4.8066  -26.3366 N   0  0  0  0  0  0  0  0  0  0  0  0
   -6.4563   -5.4561  -26.7685 N   0  0  0  0  0  0  0  0  0  0  0  0
   -7.4122   -4.5441  -27.0263 N   0  0  0  0  0  0  0  0  0  0  0  0
   -8.7291   -4.9262  -27.5006 C   0  0  0  0  0  0  0  0  0  0  0  0
   -8.6675   -5.9793  -27.7791 H   0  0  0  0  0  0  0  0  0  0  0  0
   -9.4792   -4.7912  -26.7119 H   0  0  0  0  0  0  0  0  0  0  0  0
   -9.0045   -4.3170  -28.3686 H   0  0  0  0  0  0  0  0  0  0  0  0
   -8.3137   -2.0273  -27.7358 H   0  0  0  0  0  0  0  0  0  0  0  0
   -6.9563   -1.2385  -26.8951 H   0  0  0  0  0  0  0  0  0  0  0  0
   -9.9296   -1.8199  -25.9006 C   0  0  0  0  0  0  0  0  0  0  0  0
  -10.4434   -2.1387  -26.9684 O   0  0  0  0  0  0  0  0  0  0  0  0
  -10.7631   -1.4403  -24.7216 C   0  0  0  0  0  0  0  0  0  0  0  0
  -12.1362   -1.2890  -24.9182 C   0  0  0  0  0  0  0  0  0  0  0  0
  -12.9564   -0.9601  -23.8596 C   0  0  0  0  0  0  0  0  0  0  0  0
  -12.3949   -0.8092  -22.6010 C   0  0  0  0  0  0  0  0  0  0  0  0
  -13.2411   -0.4902  -21.6112 F   0  0  0  0  0  0  0  0  0  0  0  0
  -11.0430   -0.9855  -22.3687 C   0  0  0  0  0  0  0  0  0  0  0  0
  -10.2024   -1.2822  -23.4483 C   0  0  0  0  0  0  0  0  0  0  0  0
  -10.6226   -0.8934  -21.3745 H   0  0  0  0  0  0  0  0  0  0  0  0
  -14.0257   -0.8162  -23.9523 H   0  0  0  0  0  0  0  0  0  0  0  0
  -12.5306   -1.4420  -25.9165 H   0  0  0  0  0  0  0  0  0  0  0  0
   -6.9453   -1.6907  -24.4470 H   0  0  0  0  0  0  0  0  0  0  0  0
   -7.8630   -0.1649  -24.5780 H   0  0  0  0  0  0  0  0  0  0  0  0
   -7.5374   -3.3908  -20.6317 H   0  0  0  0  0  0  0  0  0  0  0  0
   -6.3983   -3.0830  -21.9464 H   0  0  0  0  0  0  0  0  0  0  0  0
   -9.4286   -3.1843  -22.0142 H   0  0  0  0  0  0  0  0  0  0  0  0
   -7.2742   -3.9638  -24.0522 H   0  0  0  0  0  0  0  0  0  0  0  0
   -8.1935   -5.0747  -23.0259 H   0  0  0  0  0  0  0  0  0  0  0  0
   -9.0178   -4.1688  -24.3075 H   0  0  0  0  0  0  0  0  0  0  0  0
  1  2  1  0
  2  3  1  0
  3  4  1  0
  4  5  1  0
  5  6  2  0
  6  7  1  0
  7  8  2  0
  8  9  1  0
  9 10  2  0
 10 11  1  0
 11 12  2  0
 12 13  1  0
 13 14  2  0
 13 15  1  0
 12 16  1  0
 11 17  1  0
 10 18  1  0
  8 19  1  0
  6 20  1  0
  4 21  1  0
 21 22  2  0
 21 23  1  0
 23 24  1  6
 24 25  1  0
 25 26  1  0
 26 27  1  0
 27 28  2  0
 28 29  1  0
 29 30  2  0
 30 31  1  0
 31 32  1  0
 32 33  1  0
 32 34  1  0
 32 35  1  0
 26 36  1  0
 26 37  1  0
 25 38  1  0
 38 39  2  0
 38 40  1  0
 40 41  2  0
 41 42  1  0
 42 43  2  0
 43 44  1  0
 43 45  1  0
 45 46  2  0
 45 47  1  0
 42 48  1  0
 41 49  1  0
 24 50  1  0
 24 51  1  0
  3 52  1  0
  3 53  1  0
  2 54  1  1
  1 55  1  0
  1 56  1  0
  1 57  1  0
 23  2  1  0
 31 27  1  0
 46 40  1  0
 14  5  1  0
 46 23  1  0
 14  9  1  0
M  END
>  <cnnaffinities>  (32) 
[5.95733, 5.99677]

>  <score>  (32) 
5.95733

>  <index>  (32) 
32

>  <Smiles>  (32) 
C([C@]1(C(N(c2c(nc(c3c(c(c(c(c23)[H])[H])[H])[H])[H])[H])C(=O)[C@]21C(N(C(c1nnnn1C([H])([H])[H])([H])[H])C(=O)c1c(c(c(F)c(c21)[H])[H])[H])([H])[H])([H])[H])[H])([H])([H])[H]

>  <h>  (32) 
<NA>

>  <Training>  (32) 
True

>  <Success>  (32) 
True

>  <enamine_searched>  (32) 
False

>  <enamine_id>  (32) 
nan

$$$$

     RDKit          3D

 66 70  0  0  0  0  0  0  0  0999 V2000
   -7.3980    3.3721  -21.7905 C   0  0  0  0  0  0  0  0  0  0  0  0
   -8.3411    2.9370  -22.8037 N   0  0  0  0  0  0  0  0  0  0  0  0
   -7.8212    2.2340  -23.8472 C   0  0  0  0  0  0  0  0  0  0  0  0
   -6.6120    2.0730  -23.9760 O   0  0  0  0  0  0  0  0  0  0  0  0
   -8.8097    1.6481  -24.8484 C   0  0  0  0  0  0  0  0  0  0  0  0
   -9.4592    0.4690  -24.3171 N   0  0  0  0  0  0  0  0  0  0  0  0
   -8.6951   -0.7551  -24.1575 C   0  0  0  0  0  0  0  0  0  0  0  0
   -9.0645   -1.5151  -22.8628 C   0  0  2  0  0  0  0  0  0  0  0  0
   -8.5476   -0.7486  -21.6258 C   0  0  0  0  0  0  0  0  0  0  0  0
   -9.0248    0.2413  -21.1150 O   0  0  0  0  0  0  0  0  0  0  0  0
   -7.4097   -1.3804  -21.1790 N   0  0  0  0  0  0  0  0  0  0  0  0
   -6.6112   -0.8057  -20.1650 C   0  0  0  0  0  0  0  0  0  0  0  0
   -6.9226   -1.0470  -18.8538 C   0  0  0  0  0  0  0  0  0  0  0  0
   -6.2181   -0.5659  -17.8026 N   0  0  0  0  0  0  0  0  0  0  0  0
   -5.1859    0.1983  -18.0687 C   0  0  0  0  0  0  0  0  0  0  0  0
   -4.7552    0.5302  -19.3847 C   0  0  0  0  0  0  0  0  0  0  0  0
   -3.6331    1.3653  -19.6269 C   0  0  0  0  0  0  0  0  0  0  0  0
   -3.2644    1.6847  -20.9040 C   0  0  0  0  0  0  0  0  0  0  0  0
   -4.0047    1.1935  -22.0036 C   0  0  0  0  0  0  0  0  0  0  0  0
   -5.0791    0.3619  -21.7997 C   0  0  0  0  0  0  0  0  0  0  0  0
   -5.4844    0.0102  -20.4823 C   0  0  0  0  0  0  0  0  0  0  0  0
   -5.6364   -0.0022  -22.6583 H   0  0  0  0  0  0  0  0  0  0  0  0
   -3.7085    1.4538  -23.0151 H   0  0  0  0  0  0  0  0  0  0  0  0
   -2.3997    2.3162  -21.0861 H   0  0  0  0  0  0  0  0  0  0  0  0
   -3.0873    1.7546  -18.7718 H   0  0  0  0  0  0  0  0  0  0  0  0
   -4.6178    0.5885  -17.2222 H   0  0  0  0  0  0  0  0  0  0  0  0
   -7.7887   -1.6604  -18.6163 H   0  0  0  0  0  0  0  0  0  0  0  0
   -7.0362   -2.5522  -21.9374 C   0  0  0  0  0  0  0  0  0  0  0  0
   -8.2956   -2.8649  -22.7519 C   0  0  2  0  0  0  0  0  0  0  0  0
   -7.9549   -3.6016  -24.0489 C   0  0  0  0  0  0  0  0  0  0  0  0
   -9.1041   -3.9737  -24.7703 O   0  0  0  0  0  0  0  0  0  0  0  0
   -9.6084   -5.2822  -24.5023 C   0  0  0  0  0  0  0  0  0  0  0  0
  -11.0956   -5.2037  -24.7702 C   0  0  0  0  0  0  0  0  0  0  0  0
  -11.6386   -6.0919  -24.4520 H   0  0  0  0  0  0  0  0  0  0  0  0
  -11.5307   -4.3236  -24.2876 H   0  0  0  0  0  0  0  0  0  0  0  0
  -11.2102   -5.1585  -25.8582 H   0  0  0  0  0  0  0  0  0  0  0  0
   -8.9873   -6.2967  -25.4606 C   0  0  0  0  0  0  0  0  0  0  0  0
   -9.4488   -7.2810  -25.3204 H   0  0  0  0  0  0  0  0  0  0  0  0
   -7.9049   -6.4147  -25.3481 H   0  0  0  0  0  0  0  0  0  0  0  0
   -9.1934   -5.9571  -26.4825 H   0  0  0  0  0  0  0  0  0  0  0  0
   -9.3995   -5.5557  -23.4542 H   0  0  0  0  0  0  0  0  0  0  0  0
   -7.3358   -4.4859  -23.8241 H   0  0  0  0  0  0  0  0  0  0  0  0
   -7.3688   -2.9516  -24.7122 H   0  0  0  0  0  0  0  0  0  0  0  0
   -8.9288   -3.5299  -22.1606 H   0  0  0  0  0  0  0  0  0  0  0  0
   -6.1729   -2.3580  -22.5937 H   0  0  0  0  0  0  0  0  0  0  0  0
   -6.7613   -3.3715  -21.2665 H   0  0  0  0  0  0  0  0  0  0  0  0
  -10.5730   -1.6195  -22.8106 C   0  0  0  0  0  0  0  0  0  0  0  0
  -11.1939   -2.5418  -21.9660 C   0  0  0  0  0  0  0  0  0  0  0  0
  -12.5732   -2.5679  -21.8684 C   0  0  0  0  0  0  0  0  0  0  0  0
  -13.3179   -3.6536  -20.7355 Cl  0  0  0  0  0  0  0  0  0  0  0  0
  -13.3922   -1.7207  -22.6162 C   0  0  0  0  0  0  0  0  0  0  0  0
  -12.7807   -0.7767  -23.4110 C   0  0  0  0  0  0  0  0  0  0  0  0
  -11.3928   -0.6941  -23.4707 C   0  0  0  0  0  0  0  0  0  0  0  0
  -10.8152    0.4901  -24.1714 C   0  0  0  0  0  0  0  0  0  0  0  0
  -11.5018    1.4277  -24.5510 O   0  0  0  0  0  0  0  0  0  0  0  0
  -13.3543   -0.0499  -23.9718 H   0  0  0  0  0  0  0  0  0  0  0  0
  -14.4721   -1.7824  -22.5232 H   0  0  0  0  0  0  0  0  0  0  0  0
  -10.6075   -3.2066  -21.3408 H   0  0  0  0  0  0  0  0  0  0  0  0
   -8.8864   -1.4238  -25.0035 H   0  0  0  0  0  0  0  0  0  0  0  0
   -7.6317   -0.5028  -24.1603 H   0  0  0  0  0  0  0  0  0  0  0  0
   -9.6036    2.3544  -25.1160 H   0  0  0  0  0  0  0  0  0  0  0  0
   -8.2239    1.3950  -25.7348 H   0  0  0  0  0  0  0  0  0  0  0  0
   -9.2934    2.7903  -22.4962 H   0  0  0  0  0  0  0  0  0  0  0  0
   -6.7705    2.5321  -21.4741 H   0  0  0  0  0  0  0  0  0  0  0  0
   -6.7448    4.1515  -22.1822 H   0  0  0  0  0  0  0  0  0  0  0  0
   -7.9282    3.7854  -20.9357 H   0  0  0  0  0  0  0  0  0  0  0  0
  1  2  1  0
  2  3  1  0
  3  4  2  0
  3  5  1  0
  5  6  1  0
  6  7  1  0
  8  7  1  6
  8  9  1  0
  9 10  2  0
  9 11  1  0
 11 12  1  0
 12 13  2  0
 13 14  1  0
 14 15  2  0
 15 16  1  0
 16 17  2  0
 17 18  1  0
 18 19  2  0
 19 20  1  0
 20 21  2  0
 20 22  1  0
 19 23  1  0
 18 24  1  0
 17 25  1  0
 15 26  1  0
 13 27  1  0
 11 28  1  0
 28 29  1  0
 29 30  1  0
 30 31  1  0
 31 32  1  0
 32 33  1  0
 33 34  1  0
 33 35  1  0
 33 36  1  0
 32 37  1  0
 37 38  1  0
 37 39  1  0
 37 40  1  0
 32 41  1  0
 30 42  1  0
 30 43  1  0
 29 44  1  1
 28 45  1  0
 28 46  1  0
  8 47  1  0
 47 48  2  0
 48 49  1  0
 49 50  1  0
 49 51  2  0
 51 52  1  0
 52 53  2  0
 53 54  1  0
 54 55  2  0
 52 56  1  0
 51 57  1  0
 48 58  1  0
  7 59  1  0
  7 60  1  0
  5 61  1  0
  5 62  1  0
  2 63  1  0
  1 64  1  0
  1 65  1  0
  1 66  1  0
 54  6  1  0
 29  8  1  0
 53 47  1  0
 21 12  1  0
 21 16  1  0
M  END
>  <cnnaffinities>  (33) 
[6.06479, 6.08373, 6.43275, 6.28476, 5.94365, 6.27732, 5.79511, 6.11811]

>  <score>  (33) 
6.06479

>  <index>  (33) 
34

>  <Smiles>  (33) 
C(N(C(=O)C(N1C([C@@]2(C(=O)N(c3c(nc(c4c(c(c(c(c34)[H])[H])[H])[H])[H])[H])C([C@@]2(C(OC(C([H])([H])[H])(C([H])([H])[H])[H])([H])[H])[H])([H])[H])c2c(c(Cl)c(c(c2C1=O)[H])[H])[H])([H])[H])([H])[H])[H])([H])([H])[H]

>  <h>  (33) 
<NA>

>  <Training>  (33) 
True

>  <Success>  (33) 
True

>  <enamine_searched>  (33) 
False

>  <enamine_id>  (33) 
nan

$$$$

     RDKit          3D

 40 42  0  0  0  0  0  0  0  0999 V2000
   -9.1186   -1.9389  -22.7255 O   0  0  0  0  0  0  0  0  0  0  0  0
   -8.2631   -1.1195  -22.4043 C   0  0  0  0  0  0  0  0  0  0  0  0
   -6.9196   -1.5936  -21.8499 C   0  0  0  0  0  0  0  0  0  0  0  0
   -6.3941   -0.8510  -20.6369 C   0  0  0  0  0  0  0  0  0  0  0  0
   -6.9959   -1.0368  -19.4159 C   0  0  0  0  0  0  0  0  0  0  0  0
   -6.5406   -0.5584  -18.2319 N   0  0  0  0  0  0  0  0  0  0  0  0
   -5.4680    0.1942  -18.2667 C   0  0  0  0  0  0  0  0  0  0  0  0
   -4.7926    0.5556  -19.4610 C   0  0  0  0  0  0  0  0  0  0  0  0
   -3.7228    1.4875  -19.4558 C   0  0  0  0  0  0  0  0  0  0  0  0
   -3.1611    1.9070  -20.6299 C   0  0  0  0  0  0  0  0  0  0  0  0
   -3.6105    1.3667  -21.8523 C   0  0  0  0  0  0  0  0  0  0  0  0
   -4.5805    0.3890  -21.8733 C   0  0  0  0  0  0  0  0  0  0  0  0
   -5.2503    0.0032  -20.6833 C   0  0  0  0  0  0  0  0  0  0  0  0
   -4.8382   -0.0706  -22.8246 H   0  0  0  0  0  0  0  0  0  0  0  0
   -3.1509    1.6899  -22.7840 H   0  0  0  0  0  0  0  0  0  0  0  0
   -2.3764    2.6580  -20.6384 H   0  0  0  0  0  0  0  0  0  0  0  0
   -3.3922    1.8910  -18.5015 H   0  0  0  0  0  0  0  0  0  0  0  0
   -5.0904    0.5790  -17.3165 H   0  0  0  0  0  0  0  0  0  0  0  0
   -7.9112   -1.6246  -19.3516 H   0  0  0  0  0  0  0  0  0  0  0  0
   -7.1002   -2.6379  -21.5841 H   0  0  0  0  0  0  0  0  0  0  0  0
   -6.1788   -1.6040  -22.6537 H   0  0  0  0  0  0  0  0  0  0  0  0
   -8.4016    0.2559  -22.4725 N   0  0  0  0  0  0  0  0  0  0  0  0
   -7.4495    1.1311  -23.2097 C   0  0  0  0  0  0  0  0  0  0  0  0
   -8.0247    2.4007  -23.7711 C   0  0  0  0  0  0  0  0  0  0  0  0
   -9.2689    2.8579  -23.6940 C   0  0  0  0  0  0  0  0  0  0  0  0
   -8.5169    5.4279  -22.8359 C   0  0  0  0  0  0  0  0  0  0  0  0
   -7.9412    4.9864  -21.7360 F   0  0  0  0  0  0  0  0  0  0  0  0
   -9.2791    6.4710  -22.5784 F   0  0  0  0  0  0  0  0  0  0  0  0
   -7.6111    5.7168  -23.7544 F   0  0  0  0  0  0  0  0  0  0  0  0
   -9.5845    1.0270  -22.0284 C   0  0  0  0  0  0  0  0  0  0  0  0
   -9.6020    0.8700  -21.8457 C   0  0  0  0  0  0  0  0  0  0  0  0
  -10.3471    0.5020  -22.8177 H   0  0  0  0  0  0  0  0  0  0  0  0
   -9.8878    0.0294  -20.5426 H   0  0  0  0  0  0  0  0  0  0  0  0
  -10.4959    1.7832  -21.7720 H   0  0  0  0  0  0  0  0  0  0  0  0
   -8.8674    1.8662  -21.5044 H   0  0  0  0  0  0  0  0  0  0  0  0
   -9.4425    3.9387  -23.6982 H   0  0  0  0  0  0  0  0  0  0  0  0
   -7.2463    3.0019  -24.2394 H   0  0  0  0  0  0  0  0  0  0  0  0
  -10.1181    2.2081  -23.6491 H   0  0  0  0  0  0  0  0  0  0  0  0
   -7.0097    0.5507  -24.0170 H   0  0  0  0  0  0  0  0  0  0  0  0
   -6.6455    1.4176  -22.5236 H   0  0  0  0  0  0  0  0  0  0  0  0
  1  2  2  0
  2  3  1  0
  3  4  1  0
  4  5  2  0
  5  6  1  0
  6  7  2  0
  7  8  1  0
  8  9  2  0
  9 10  1  0
 10 11  2  0
 11 12  1  0
 12 13  2  0
 12 14  1  0
 11 15  1  0
 10 16  1  0
  9 17  1  0
  7 18  1  0
  5 19  1  0
  3 20  1  0
  3 21  1  0
  2 22  1  0
 22 23  1  0
 23 24  1  0
 24 25  1  0
 25 26  1  0
 26 27  1  0
 26 28  1  0
 26 29  1  0
 25 30  1  0
 30 31  1  0
 31 32  1  0
 31 33  1  0
 30 34  1  0
 30 35  1  0
 25 36  1  0
 24 37  1  0
 24 38  1  0
 23 39  1  0
 23 40  1  0
 13  4  1  0
 31 22  1  0
 13  8  1  0
M  END
>  <cnnaffinities>  (34) 
[4.31751]

>  <score>  (34) 
4.31751

>  <index>  (34) 
35

>  <Smiles>  (34) 
O=C(C(c1c(nc(c2c(c(c(c(c12)[H])[H])[H])[H])[H])[H])([H])[H])N1C(C(C(C(F)(F)F)(C(C1([H])[H])([H])[H])[H])([H])[H])([H])[H]

>  <h>  (34) 
<NA>

>  <Training>  (34) 
True

>  <Success>  (34) 
True

>  <enamine_searched>  (34) 
False

>  <enamine_id>  (34) 
nan

$$$$

     RDKit          3D

 47 50  0  0  0  0  0  0  0  0999 V2000
   -8.6865    0.6144  -21.3589 O   0  0  0  0  0  0  0  0  0  0  0  0
   -8.3367   -0.3830  -21.9602 C   0  0  0  0  0  0  0  0  0  0  0  0
   -7.4341   -1.4326  -21.2732 C   0  0  0  0  0  0  0  0  0  0  0  0
   -6.5782   -0.8331  -20.1807 C   0  0  0  0  0  0  0  0  0  0  0  0
   -6.8789   -1.0405  -18.8614 C   0  0  0  0  0  0  0  0  0  0  0  0
   -6.1913   -0.5408  -17.7987 N   0  0  0  0  0  0  0  0  0  0  0  0
   -5.1573    0.2200  -18.0646 C   0  0  0  0  0  0  0  0  0  0  0  0
   -4.7251    0.5335  -19.3801 C   0  0  0  0  0  0  0  0  0  0  0  0
   -3.5998    1.3650  -19.6192 C   0  0  0  0  0  0  0  0  0  0  0  0
   -3.2184    1.6675  -20.8974 C   0  0  0  0  0  0  0  0  0  0  0  0
   -3.9569    1.1558  -21.9874 C   0  0  0  0  0  0  0  0  0  0  0  0
   -5.0335    0.3299  -21.7852 C   0  0  0  0  0  0  0  0  0  0  0  0
   -5.4550   -0.0017  -20.4715 C   0  0  0  0  0  0  0  0  0  0  0  0
   -5.5658   -0.0724  -22.6427 H   0  0  0  0  0  0  0  0  0  0  0  0
   -3.6269    1.3751  -22.9976 H   0  0  0  0  0  0  0  0  0  0  0  0
   -2.3523    2.2969  -21.0879 H   0  0  0  0  0  0  0  0  0  0  0  0
   -3.0588    1.7734  -18.7689 H   0  0  0  0  0  0  0  0  0  0  0  0
   -4.6035    0.6262  -17.2152 H   0  0  0  0  0  0  0  0  0  0  0  0
   -7.7302   -1.6593  -18.5848 H   0  0  0  0  0  0  0  0  0  0  0  0
   -8.0866   -2.1984  -20.8323 H   0  0  0  0  0  0  0  0  0  0  0  0
   -6.8079   -1.9517  -22.0116 H   0  0  0  0  0  0  0  0  0  0  0  0
   -8.6804   -0.6044  -23.2872 N   0  0  0  0  0  0  0  0  0  0  0  0
   -9.1594    0.5339  -24.0698 C   0  0  0  0  0  0  0  0  0  0  0  0
  -10.6771    0.5439  -24.2215 C   0  0  0  0  0  0  0  0  0  0  0  0
  -11.1724   -0.7913  -24.7703 C   0  0  0  0  0  0  0  0  0  0  0  0
  -10.6201   -1.9439  -23.9338 C   0  0  0  0  0  0  0  0  0  0  0  0
   -9.0815   -1.9137  -23.8221 C   0  0  1  0  0  0  0  0  0  0  0  0
   -8.3310   -2.2545  -25.1130 C   0  0  0  0  0  0  0  0  0  0  0  0
   -6.9740   -1.9280  -25.2098 C   0  0  0  0  0  0  0  0  0  0  0  0
   -6.2251   -2.2423  -26.3373 C   0  0  0  0  0  0  0  0  0  0  0  0
   -6.8146   -2.9059  -27.4064 C   0  0  0  0  0  0  0  0  0  0  0  0
   -8.1558   -3.2582  -27.3188 C   0  0  0  0  0  0  0  0  0  0  0  0
   -8.9043   -2.9426  -26.1859 C   0  0  0  0  0  0  0  0  0  0  0  0
   -9.9459   -3.2494  -26.1597 H   0  0  0  0  0  0  0  0  0  0  0  0
   -8.6294   -3.7891  -28.1399 H   0  0  0  0  0  0  0  0  0  0  0  0
   -6.2346   -3.1495  -28.2929 H   0  0  0  0  0  0  0  0  0  0  0  0
   -5.1768   -1.9640  -26.3823 H   0  0  0  0  0  0  0  0  0  0  0  0
   -6.4811   -1.4136  -24.3902 H   0  0  0  0  0  0  0  0  0  0  0  0
   -8.7909   -2.6562  -23.0733 H   0  0  0  0  0  0  0  0  0  0  0  0
  -10.9588   -2.9116  -24.3147 H   0  0  0  0  0  0  0  0  0  0  0  0
  -11.0255   -1.8728  -22.9182 H   0  0  0  0  0  0  0  0  0  0  0  0
  -10.8534   -0.9095  -25.8144 H   0  0  0  0  0  0  0  0  0  0  0  0
  -12.2678   -0.8148  -24.7749 H   0  0  0  0  0  0  0  0  0  0  0  0
  -10.9878    1.3667  -24.8780 H   0  0  0  0  0  0  0  0  0  0  0  0
  -11.1161    0.7401  -23.2383 H   0  0  0  0  0  0  0  0  0  0  0  0
   -8.8055    1.4509  -23.5990 H   0  0  0  0  0  0  0  0  0  0  0  0
   -8.7005    0.4721  -25.0635 H   0  0  0  0  0  0  0  0  0  0  0  0
  1  2  2  0
  2  3  1  0
  3  4  1  0
  4  5  2  0
  5  6  1  0
  6  7  2  0
  7  8  1  0
  8  9  2  0
  9 10  1  0
 10 11  2  0
 11 12  1  0
 12 13  2  0
 12 14  1  0
 11 15  1  0
 10 16  1  0
  9 17  1  0
  7 18  1  0
  5 19  1  0
  3 20  1  0
  3 21  1  0
  2 22  1  0
 22 23  1  0
 23 24  1  0
 24 25  1  0
 25 26  1  0
 26 27  1  0
 27 28  1  0
 28 29  2  0
 29 30  1  0
 30 31  2  0
 31 32  1  0
 32 33  2  0
 33 34  1  0
 32 35  1  0
 31 36  1  0
 30 37  1  0
 29 38  1  0
 27 39  1  1
 26 40  1  0
 26 41  1  0
 25 42  1  0
 25 43  1  0
 24 44  1  0
 24 45  1  0
 23 46  1  0
 23 47  1  0
 13  4  1  0
 27 22  1  0
 33 28  1  0
 13  8  1  0
M  END
>  <cnnaffinities>  (35) 
[4.80292, 4.80294, 4.59613, 4.59681, 5.05533, 5.04813]

>  <score>  (35) 
4.80292

>  <index>  (35) 
36

>  <Smiles>  (35) 
O=C(C(c1c(nc(c2c(c(c(c(c12)[H])[H])[H])[H])[H])[H])([H])[H])N1C(C(C(C([C@]1(c1c(c(c(c(c1[H])[H])[H])[H])[H])[H])([H])[H])([H])[H])([H])[H])([H])[H]

>  <h>  (35) 
<NA>

>  <Training>  (35) 
True

>  <Success>  (35) 
True

>  <enamine_searched>  (35) 
False

>  <enamine_id>  (35) 
nan

$$$$

     RDKit          3D

 56 60  0  0  0  0  0  0  0  0999 V2000
  -14.5322   -1.4818  -23.7947 C   0  0  0  0  0  0  0  0  0  0  0  0
  -13.7712   -2.6224  -23.3358 N   0  0  0  0  0  0  0  0  0  0  0  0
  -13.3912   -2.6690  -22.0376 C   0  0  0  0  0  0  0  0  0  0  0  0
  -13.7421   -1.8395  -21.2161 O   0  0  0  0  0  0  0  0  0  0  0  0
  -12.4933   -3.8503  -21.6976 C   0  0  0  0  0  0  0  0  0  0  0  0
  -11.1594   -3.8036  -22.2811 N   0  0  0  0  0  0  0  0  0  0  0  0
  -10.0378   -3.3408  -21.4753 C   0  0  0  0  0  0  0  0  0  0  0  0
   -8.8198   -2.9077  -22.3228 C   0  0  2  0  0  0  0  0  0  0  0  0
   -7.6239   -2.7154  -21.3852 C   0  0  0  0  0  0  0  0  0  0  0  0
   -6.9584   -3.5927  -20.8670 O   0  0  0  0  0  0  0  0  0  0  0  0
   -7.3860   -1.3661  -21.2351 N   0  0  0  0  0  0  0  0  0  0  0  0
   -6.5871   -0.8657  -20.1838 C   0  0  0  0  0  0  0  0  0  0  0  0
   -6.8975   -1.1238  -18.8731 C   0  0  0  0  0  0  0  0  0  0  0  0
   -6.2252   -0.6016  -17.8168 N   0  0  0  0  0  0  0  0  0  0  0  0
   -5.2122    0.1901  -18.0751 C   0  0  0  0  0  0  0  0  0  0  0  0
   -4.7763    0.5220  -19.3890 C   0  0  0  0  0  0  0  0  0  0  0  0
   -3.6558    1.3578  -19.6225 C   0  0  0  0  0  0  0  0  0  0  0  0
   -3.2831    1.6689  -20.9000 C   0  0  0  0  0  0  0  0  0  0  0  0
   -4.0114    1.1634  -21.9993 C   0  0  0  0  0  0  0  0  0  0  0  0
   -5.0761    0.3207  -21.8034 C   0  0  0  0  0  0  0  0  0  0  0  0
   -5.4879   -0.0080  -20.4851 C   0  0  0  0  0  0  0  0  0  0  0  0
   -5.5960   -0.1122  -22.6522 H   0  0  0  0  0  0  0  0  0  0  0  0
   -3.7022    1.4197  -23.0076 H   0  0  0  0  0  0  0  0  0  0  0  0
   -2.4235    2.3066  -21.0813 H   0  0  0  0  0  0  0  0  0  0  0  0
   -3.1173    1.7508  -18.7662 H   0  0  0  0  0  0  0  0  0  0  0  0
   -4.6739    0.6101  -17.2242 H   0  0  0  0  0  0  0  0  0  0  0  0
   -7.7348   -1.7728  -18.6247 H   0  0  0  0  0  0  0  0  0  0  0  0
   -8.3726   -0.5312  -21.8996 C   0  0  0  0  0  0  0  0  0  0  0  0
   -9.0038   -1.4731  -22.9312 C   0  0  2  0  0  0  0  0  0  0  0  0
  -10.4407   -1.1080  -23.2793 C   0  0  0  0  0  0  0  0  0  0  0  0
  -10.8673   -1.8650  -23.9421 H   0  0  0  0  0  0  0  0  0  0  0  0
  -10.5127   -0.1335  -23.7694 H   0  0  0  0  0  0  0  0  0  0  0  0
  -11.0523   -1.0842  -22.3713 H   0  0  0  0  0  0  0  0  0  0  0  0
   -8.3948   -1.4482  -23.8454 H   0  0  0  0  0  0  0  0  0  0  0  0
   -9.1259   -0.1627  -21.1852 H   0  0  0  0  0  0  0  0  0  0  0  0
   -7.9029    0.3435  -22.3596 H   0  0  0  0  0  0  0  0  0  0  0  0
   -8.5456   -3.9552  -23.3726 C   0  0  0  0  0  0  0  0  0  0  0  0
   -7.2715   -4.1078  -23.9249 C   0  0  0  0  0  0  0  0  0  0  0  0
   -7.0441   -5.0455  -24.9177 C   0  0  0  0  0  0  0  0  0  0  0  0
   -8.0702   -5.8783  -25.3610 C   0  0  0  0  0  0  0  0  0  0  0  0
   -9.3359   -5.7275  -24.8303 C   0  0  0  0  0  0  0  0  0  0  0  0
   -9.5805   -4.7439  -23.8754 C   0  0  0  0  0  0  0  0  0  0  0  0
  -10.9808   -4.5139  -23.4282 C   0  0  0  0  0  0  0  0  0  0  0  0
  -11.9505   -4.9197  -24.0644 O   0  0  0  0  0  0  0  0  0  0  0  0
  -10.1512   -6.3713  -25.1360 H   0  0  0  0  0  0  0  0  0  0  0  0
   -7.8779   -6.6363  -26.1155 H   0  0  0  0  0  0  0  0  0  0  0  0
   -6.0635   -5.1224  -25.3691 H   0  0  0  0  0  0  0  0  0  0  0  0
   -6.4480   -3.5032  -23.5567 H   0  0  0  0  0  0  0  0  0  0  0  0
  -10.3609   -2.4777  -20.8841 H   0  0  0  0  0  0  0  0  0  0  0  0
   -9.7588   -4.1418  -20.7875 H   0  0  0  0  0  0  0  0  0  0  0  0
  -12.4392   -3.9793  -20.6167 H   0  0  0  0  0  0  0  0  0  0  0  0
  -12.9979   -4.7112  -22.1333 H   0  0  0  0  0  0  0  0  0  0  0  0
  -13.4599   -3.3609  -23.9524 H   0  0  0  0  0  0  0  0  0  0  0  0
  -13.9114   -0.5754  -23.8058 H   0  0  0  0  0  0  0  0  0  0  0  0
  -15.3844   -1.3165  -23.1271 H   0  0  0  0  0  0  0  0  0  0  0  0
  -14.8923   -1.6780  -24.8043 H   0  0  0  0  0  0  0  0  0  0  0  0
  1  2  1  0
  2  3  1  0
  3  4  2  0
  3  5  1  0
  5  6  1  0
  6  7  1  0
  8  7  1  1
  8  9  1  0
  9 10  2  0
  9 11  1  0
 11 12  1  0
 12 13  2  0
 13 14  1  0
 14 15  2  0
 15 16  1  0
 16 17  2  0
 17 18  1  0
 18 19  2  0
 19 20  1  0
 20 21  2  0
 20 22  1  0
 19 23  1  0
 18 24  1  0
 17 25  1  0
 15 26  1  0
 13 27  1  0
 11 28  1  0
 28 29  1  0
 29 30  1  0
 30 31  1  0
 30 32  1  0
 30 33  1  0
 29 34  1  6
 28 35  1  0
 28 36  1  0
  8 37  1  0
 37 38  2  0
 38 39  1  0
 39 40  2  0
 40 41  1  0
 41 42  2  0
 42 43  1  0
 43 44  2  0
 41 45  1  0
 40 46  1  0
 39 47  1  0
 38 48  1  0
  7 49  1  0
  7 50  1  0
  5 51  1  0
  5 52  1  0
  2 53  1  0
  1 54  1  0
  1 55  1  0
  1 56  1  0
 43  6  1  0
 29  8  1  0
 42 37  1  0
 21 12  1  0
 21 16  1  0
M  END
>  <cnnaffinities>  (36) 
[5.95245, 5.6574]

>  <score>  (36) 
5.95245

>  <index>  (36) 
37

>  <Smiles>  (36) 
C(N(C(=O)C(N1C([C@@]2(C(=O)N(c3c(nc(c4c(c(c(c(c34)[H])[H])[H])[H])[H])[H])C([C@@]2(C([H])([H])[H])[H])([H])[H])c2c(c(c(c(c2C1=O)[H])[H])[H])[H])([H])[H])([H])[H])[H])([H])([H])[H]

>  <h>  (36) 
<NA>

>  <Training>  (36) 
True

>  <Success>  (36) 
True

>  <enamine_searched>  (36) 
False

>  <enamine_id>  (36) 
nan

$$$$

     RDKit          3D

 46 48  0  0  0  0  0  0  0  0999 V2000
   -8.1583   -4.6949  -26.5424 C   0  0  0  0  0  0  0  0  0  0  0  0
   -8.6539   -4.9601  -25.1185 C   0  0  1  0  0  0  0  0  0  0  0  0
   -7.5895   -5.5249  -24.1815 C   0  0  0  0  0  0  0  0  0  0  0  0
   -6.6150   -4.5187  -23.5536 C   0  0  1  0  0  0  0  0  0  0  0  0
   -5.4119   -4.1593  -24.4399 C   0  0  0  0  0  0  0  0  0  0  0  0
   -4.6083   -3.7384  -23.8280 H   0  0  0  0  0  0  0  0  0  0  0  0
   -5.6633   -3.4316  -25.2147 H   0  0  0  0  0  0  0  0  0  0  0  0
   -5.0166   -5.0546  -24.9376 H   0  0  0  0  0  0  0  0  0  0  0  0
   -7.3245   -3.3381  -23.0140 N   0  0  0  0  0  0  0  0  0  0  0  0
   -6.7230   -2.7040  -21.9375 C   0  0  0  0  0  0  0  0  0  0  0  0
   -5.6774   -3.1215  -21.4658 O   0  0  0  0  0  0  0  0  0  0  0  0
   -7.4073   -1.4711  -21.2817 C   0  0  0  0  0  0  0  0  0  0  0  0
   -6.5783   -0.8365  -20.1856 C   0  0  0  0  0  0  0  0  0  0  0  0
   -6.8730   -1.0490  -18.8652 C   0  0  0  0  0  0  0  0  0  0  0  0
   -6.1879   -0.5474  -17.8012 N   0  0  0  0  0  0  0  0  0  0  0  0
   -5.1583    0.2202  -18.0656 C   0  0  0  0  0  0  0  0  0  0  0  0
   -4.7228    0.5300  -19.3799 C   0  0  0  0  0  0  0  0  0  0  0  0
   -3.5952    1.3582  -19.6199 C   0  0  0  0  0  0  0  0  0  0  0  0
   -3.2048    1.6473  -20.8983 C   0  0  0  0  0  0  0  0  0  0  0  0
   -3.9370    1.1268  -21.9874 C   0  0  0  0  0  0  0  0  0  0  0  0
   -5.0131    0.3002  -21.7843 C   0  0  0  0  0  0  0  0  0  0  0  0
   -5.4475   -0.0140  -20.4720 C   0  0  0  0  0  0  0  0  0  0  0  0
   -5.5343   -0.1231  -22.6376 H   0  0  0  0  0  0  0  0  0  0  0  0
   -3.5945    1.3301  -22.9976 H   0  0  0  0  0  0  0  0  0  0  0  0
   -2.3333    2.2701  -21.0888 H   0  0  0  0  0  0  0  0  0  0  0  0
   -3.0567    1.7719  -18.7699 H   0  0  0  0  0  0  0  0  0  0  0  0
   -4.6042    0.6275  -17.2161 H   0  0  0  0  0  0  0  0  0  0  0  0
   -7.7216   -1.6715  -18.5871 H   0  0  0  0  0  0  0  0  0  0  0  0
   -7.6716   -0.7137  -22.0321 H   0  0  0  0  0  0  0  0  0  0  0  0
   -8.3593   -1.8080  -20.8481 H   0  0  0  0  0  0  0  0  0  0  0  0
   -8.4099   -2.7196  -23.7935 C   0  0  1  0  0  0  0  0  0  0  0  0
   -7.9391   -1.6595  -24.8005 C   0  0  0  0  0  0  0  0  0  0  0  0
   -7.4433   -2.0881  -25.6756 H   0  0  0  0  0  0  0  0  0  0  0  0
   -8.7982   -1.0847  -25.1700 H   0  0  0  0  0  0  0  0  0  0  0  0
   -7.2436   -0.9494  -24.3426 H   0  0  0  0  0  0  0  0  0  0  0  0
   -9.3295   -3.7775  -24.4244 C   0  0  0  0  0  0  0  0  0  0  0  0
   -9.9790   -4.1703  -23.6351 H   0  0  0  0  0  0  0  0  0  0  0  0
   -9.9952   -3.2775  -25.1356 H   0  0  0  0  0  0  0  0  0  0  0  0
   -9.0322   -2.1947  -23.0629 H   0  0  0  0  0  0  0  0  0  0  0  0
   -6.1944   -5.0179  -22.6794 H   0  0  0  0  0  0  0  0  0  0  0  0
   -8.0925   -6.0550  -23.3656 H   0  0  0  0  0  0  0  0  0  0  0  0
   -7.0112   -6.2878  -24.7143 H   0  0  0  0  0  0  0  0  0  0  0  0
   -9.4277   -5.7361  -25.2234 H   0  0  0  0  0  0  0  0  0  0  0  0
   -7.9240   -5.6405  -27.0468 H   0  0  0  0  0  0  0  0  0  0  0  0
   -8.9306   -4.1943  -27.1380 H   0  0  0  0  0  0  0  0  0  0  0  0
   -7.2551   -4.0806  -26.5813 H   0  0  0  0  0  0  0  0  0  0  0  0
  1  2  1  0
  2  3  1  0
  3  4  1  0
  4  5  1  0
  5  6  1  0
  5  7  1  0
  5  8  1  0
  4  9  1  0
  9 10  1  0
 10 11  2  0
 10 12  1  0
 12 13  1  0
 13 14  2  0
 14 15  1  0
 15 16  2  0
 16 17  1  0
 17 18  2  0
 18 19  1  0
 19 20  2  0
 20 21  1  0
 21 22  2  0
 21 23  1  0
 20 24  1  0
 19 25  1  0
 18 26  1  0
 16 27  1  0
 14 28  1  0
 12 29  1  0
 12 30  1  0
  9 31  1  0
 31 32  1  0
 32 33  1  0
 32 34  1  0
 32 35  1  0
 31 36  1  0
 36 37  1  0
 36 38  1  0
 31 39  1  1
  4 40  1  1
  3 41  1  0
  3 42  1  0
  2 43  1  6
  1 44  1  0
  1 45  1  0
  1 46  1  0
 36  2  1  0
 22 13  1  0
 22 17  1  0
M  END
>  <cnnaffinities>  (37) 
[4.96132, 4.72297]

>  <score>  (37) 
4.96132

>  <index>  (37) 
38

>  <Smiles>  (37) 
C([C@]1(C([C@@](C([H])([H])[H])(N(C(=O)C(c2c(nc(c3c(c(c(c(c23)[H])[H])[H])[H])[H])[H])([H])[H])[C@@](C([H])([H])[H])(C1([H])[H])[H])[H])([H])[H])[H])([H])([H])[H]

>  <h>  (37) 
<NA>

>  <Training>  (37) 
True

>  <Success>  (37) 
True

>  <enamine_searched>  (37) 
False

>  <enamine_id>  (37) 
nan

$$$$

     RDKit          3D

 40 44  0  0  0  0  0  0  0  0999 V2000
   -7.2341    0.9250  -25.5978 C   0  0  0  0  0  0  0  0  0  0  0  0
   -6.5072   -0.3986  -25.4019 C   0  0  0  0  0  0  0  0  0  0  0  0
   -5.2942   -0.5217  -25.5208 O   0  0  0  0  0  0  0  0  0  0  0  0
   -7.2736   -1.4778  -25.0835 N   0  0  0  0  0  0  0  0  0  0  0  0
   -6.6396   -2.7680  -24.7376 C   0  0  0  0  0  0  0  0  0  0  0  0
   -7.8114   -3.4864  -24.0473 C   0  0  2  0  0  0  0  0  0  0  0  0
   -9.0044   -2.9601  -24.8630 C   0  0  0  0  0  0  0  0  0  0  0  0
   -8.6616   -1.4868  -24.5562 C   0  0  1  0  0  0  0  0  0  0  0  0
   -8.5630   -1.5560  -23.0870 C   0  0  0  0  0  0  0  0  0  0  0  0
   -8.1637   -0.6146  -22.0828 C   0  0  0  0  0  0  0  0  0  0  0  0
   -8.3451    0.5763  -21.9871 O   0  0  0  0  0  1  0  0  0  0  0  0
   -7.4005   -1.3943  -21.1803 N   0  0  0  0  0  0  0  0  0  0  0  0
   -6.5832   -0.8296  -20.1690 C   0  0  0  0  0  0  0  0  0  0  0  0
   -6.8925   -1.0648  -18.8564 C   0  0  0  0  0  0  0  0  0  0  0  0
   -6.1973   -0.5579  -17.8107 N   0  0  0  0  0  0  0  0  0  0  0  0
   -5.1689    0.2075  -18.0801 C   0  0  0  0  0  0  0  0  0  0  0  0
   -4.7336    0.5291  -19.3952 C   0  0  0  0  0  0  0  0  0  0  0  0
   -3.6041    1.3616  -19.6252 C   0  0  0  0  0  0  0  0  0  0  0  0
   -3.2144    1.6582  -20.9009 C   0  0  0  0  0  0  0  0  0  0  0  0
   -3.9379    1.1329  -21.9965 C   0  0  0  0  0  0  0  0  0  0  0  0
   -5.0083    0.2995  -21.8024 C   0  0  0  0  0  0  0  0  0  0  0  0
   -5.4573   -0.0037  -20.4861 C   0  0  0  0  0  0  0  0  0  0  0  0
   -5.4910   -0.1462  -22.6700 H   0  0  0  0  0  0  0  0  0  0  0  0
   -3.6067    1.3428  -23.0097 H   0  0  0  0  0  0  0  0  0  0  0  0
   -2.3364    2.2718  -21.0873 H   0  0  0  0  0  0  0  0  0  0  0  0
   -3.0726    1.7609  -18.7656 H   0  0  0  0  0  0  0  0  0  0  0  0
   -4.6278    0.6159  -17.2266 H   0  0  0  0  0  0  0  0  0  0  0  0
   -7.7451   -1.6874  -18.6013 H   0  0  0  0  0  0  0  0  0  0  0  0
   -7.2538   -2.7118  -21.6318 C   0  0  0  0  0  0  0  0  0  0  0  0
   -6.5348   -3.5608  -21.1619 O   0  0  0  0  0  0  0  0  0  0  0  0
   -8.0615   -2.7889  -22.7630 N   0  0  0  0  0  0  0  0  0  0  0  0
   -9.2800   -0.6905  -24.9799 H   0  0  0  0  0  0  0  0  0  0  0  0
   -9.9660   -3.2773  -24.4626 H   0  0  0  0  0  0  0  0  0  0  0  0
   -8.9259   -3.1967  -25.9283 H   0  0  0  0  0  0  0  0  0  0  0  0
   -7.7002   -4.5537  -23.9053 H   0  0  0  0  0  0  0  0  0  0  0  0
   -5.7903   -2.6270  -24.0598 H   0  0  0  0  0  0  0  0  0  0  0  0
   -6.2946   -3.2676  -25.6448 H   0  0  0  0  0  0  0  0  0  0  0  0
   -6.4852    1.6572  -25.9036 H   0  0  0  0  0  0  0  0  0  0  0  0
   -7.7227    1.2520  -24.6716 H   0  0  0  0  0  0  0  0  0  0  0  0
   -8.0161    0.8609  -26.3652 H   0  0  0  0  0  0  0  0  0  0  0  0
  1  2  1  0
  2  3  2  0
  2  4  1  0
  4  5  1  0
  5  6  1  0
  6  7  1  0
  7  8  1  0
  8  9  1  0
  9 10  2  0
 10 11  1  0
 10 12  1  0
 12 13  1  0
 13 14  2  0
 14 15  1  0
 15 16  2  0
 16 17  1  0
 17 18  2  0
 18 19  1  0
 19 20  2  0
 20 21  1  0
 21 22  2  0
 21 23  1  0
 20 24  1  0
 19 25  1  0
 18 26  1  0
 16 27  1  0
 14 28  1  0
 12 29  1  0
 29 30  2  0
 29 31  1  0
  8 32  1  1
  7 33  1  0
  7 34  1  0
  6 35  1  1
  5 36  1  0
  5 37  1  0
  1 38  1  0
  1 39  1  0
  1 40  1  0
  8  4  1  0
 31  9  1  0
 31  6  1  0
 22 13  1  0
 22 17  1  0
M  CHG  1  11  -1
M  END
>  <cnnaffinities>  (38) 
[4.92702]

>  <score>  (38) 
4.92702

>  <index>  (38) 
39

>  <Smiles>  (38) 
C(C(=O)N1C([C@@]2(C([C@]1(c1c([O-])n(c3c(nc(c4c(c(c(c(c34)[H])[H])[H])[H])[H])[H])c(=O)n21)[H])([H])[H])[H])([H])[H])([H])([H])[H]

>  <h>  (38) 
<NA>

>  <Training>  (38) 
True

>  <Success>  (38) 
True

>  <enamine_searched>  (38) 
False

>  <enamine_id>  (38) 
nan

$$$$

     RDKit          3D

 40 42  0  0  0  0  0  0  0  0999 V2000
   -5.2029   -7.6091  -20.6569 C   0  0  0  0  0  0  0  0  0  0  0  0
   -4.9909   -6.1007  -20.7382 C   0  0  0  0  0  0  0  0  0  0  0  0
   -4.5903   -5.6068  -22.1373 C   0  0  0  0  0  0  0  0  0  0  0  0
   -4.5467   -4.0745  -22.2554 C   0  0  0  0  0  0  0  0  0  0  0  0
   -5.7225   -3.4337  -21.6662 N   0  0  0  0  0  0  0  0  0  0  0  0
   -6.3137   -2.3445  -22.2560 C   0  0  0  0  0  0  0  0  0  0  0  0
   -6.0897   -2.0397  -23.4209 O   0  0  0  0  0  0  0  0  0  0  0  0
   -7.2807   -1.5203  -21.3647 C   0  0  0  0  0  0  0  0  0  0  0  0
   -6.5774   -0.8498  -20.2033 C   0  0  0  0  0  0  0  0  0  0  0  0
   -6.9412   -1.0460  -18.8935 C   0  0  0  0  0  0  0  0  0  0  0  0
   -6.2789   -0.5528  -17.8169 N   0  0  0  0  0  0  0  0  0  0  0  0
   -5.2173    0.1847  -18.0518 C   0  0  0  0  0  0  0  0  0  0  0  0
   -4.7547    0.5180  -19.3537 C   0  0  0  0  0  0  0  0  0  0  0  0
   -3.6410    1.3678  -19.5790 C   0  0  0  0  0  0  0  0  0  0  0  0
   -3.2873    1.7237  -20.8537 C   0  0  0  0  0  0  0  0  0  0  0  0
   -4.0168    1.2326  -21.9576 C   0  0  0  0  0  0  0  0  0  0  0  0
   -5.0668    0.3747  -21.7727 C   0  0  0  0  0  0  0  0  0  0  0  0
   -5.4671    0.0041  -20.4590 C   0  0  0  0  0  0  0  0  0  0  0  0
   -5.5933   -0.0334  -22.6273 H   0  0  0  0  0  0  0  0  0  0  0  0
   -3.7273    1.5164  -22.9660 H   0  0  0  0  0  0  0  0  0  0  0  0
   -2.4547    2.3970  -21.0289 H   0  0  0  0  0  0  0  0  0  0  0  0
   -3.0940    1.7549  -18.7235 H   0  0  0  0  0  0  0  0  0  0  0  0
   -4.6870    0.5774  -17.1853 H   0  0  0  0  0  0  0  0  0  0  0  0
   -7.8101   -1.6589  -18.6464 H   0  0  0  0  0  0  0  0  0  0  0  0
   -7.7739   -0.7795  -22.0060 H   0  0  0  0  0  0  0  0  0  0  0  0
   -8.0865   -2.1731  -21.0049 H   0  0  0  0  0  0  0  0  0  0  0  0
   -5.9839   -3.8676  -20.3078 C   0  0  0  0  0  0  0  0  0  0  0  0
   -6.2236   -5.3641  -20.2721 C   0  0  0  0  0  0  0  0  0  0  0  0
   -7.0951   -5.6223  -20.8892 H   0  0  0  0  0  0  0  0  0  0  0  0
   -6.4087   -5.6549  -19.2356 H   0  0  0  0  0  0  0  0  0  0  0  0
   -5.1102   -3.6315  -19.6713 H   0  0  0  0  0  0  0  0  0  0  0  0
   -6.8453   -3.3440  -19.9138 H   0  0  0  0  0  0  0  0  0  0  0  0
   -3.6460   -3.6941  -21.7546 H   0  0  0  0  0  0  0  0  0  0  0  0
   -4.4922   -3.7644  -23.2983 H   0  0  0  0  0  0  0  0  0  0  0  0
   -3.6050   -6.0106  -22.4166 H   0  0  0  0  0  0  0  0  0  0  0  0
   -5.3175   -5.9920  -22.8669 H   0  0  0  0  0  0  0  0  0  0  0  0
   -4.2679   -5.8010  -19.9848 H   0  0  0  0  0  0  0  0  0  0  0  0
   -6.0471   -7.8920  -21.2905 H   0  0  0  0  0  0  0  0  0  0  0  0
   -5.4178   -7.9436  -19.6340 H   0  0  0  0  0  0  0  0  0  0  0  0
   -4.3458   -8.1850  -21.0123 H   0  0  0  0  0  0  0  0  0  0  0  0
  1  2  1  0
  2  3  1  0
  3  4  1  0
  4  5  1  0
  5  6  1  0
  6  7  2  0
  6  8  1  0
  8  9  1  0
  9 10  2  0
 10 11  1  0
 11 12  2  0
 12 13  1  0
 13 14  2  0
 14 15  1  0
 15 16  2  0
 16 17  1  0
 17 18  2  0
 17 19  1  0
 16 20  1  0
 15 21  1  0
 14 22  1  0
 12 23  1  0
 10 24  1  0
  8 25  1  0
  8 26  1  0
  5 27  1  0
 27 28  1  0
 28 29  1  0
 28 30  1  0
 27 31  1  0
 27 32  1  0
  4 33  1  0
  4 34  1  0
  3 35  1  0
  3 36  1  0
  2 37  1  0
  1 38  1  0
  1 39  1  0
  1 40  1  0
 28  2  1  0
 18  9  1  0
 18 13  1  0
M  END
>  <cnnaffinities>  (39) 
[3.85196, 4.22121, 4.22117, 3.85004, 3.85112, 4.58003, 4.58001, 4.33572]

>  <score>  (39) 
3.85196

>  <index>  (39) 
40

>  <Smiles>  (39) 
C(C1(C(C(N(C(=O)C(c2c(nc(c3c(c(c(c(c23)[H])[H])[H])[H])[H])[H])([H])[H])C(C1([H])[H])([H])[H])([H])[H])([H])[H])[H])([H])([H])[H]

>  <h>  (39) 
<NA>

>  <Training>  (39) 
True

>  <Success>  (39) 
True

>  <enamine_searched>  (39) 
False

>  <enamine_id>  (39) 
nan

$$$$

     RDKit          3D

 67 71  0  0  0  0  0  0  0  0999 V2000
   -7.3690    3.4115  -21.8035 C   0  0  0  0  0  0  0  0  0  0  0  0
   -8.3435    2.9466  -22.7806 N   0  0  0  0  0  0  0  0  0  0  0  0
   -7.8566    2.2240  -23.8362 C   0  0  0  0  0  0  0  0  0  0  0  0
   -6.6602    2.0223  -23.9983 O   0  0  0  0  0  0  0  0  0  0  0  0
   -8.8789    1.6553  -24.8166 C   0  0  0  0  0  0  0  0  0  0  0  0
   -9.5127    0.4845  -24.2503 N   0  0  0  0  0  0  0  0  0  0  0  0
   -8.7476   -0.7460  -24.1369 C   0  0  0  0  0  0  0  0  0  0  0  0
   -9.0958   -1.5195  -22.8449 C   0  0  2  0  0  0  0  0  0  0  0  0
   -8.5570   -0.7633  -21.6118 C   0  0  0  0  0  0  0  0  0  0  0  0
   -9.0256    0.2267  -21.0840 O   0  0  0  0  0  0  0  0  0  0  0  0
   -7.4092   -1.3944  -21.1932 N   0  0  0  0  0  0  0  0  0  0  0  0
   -6.6117   -0.8256  -20.1760 C   0  0  0  0  0  0  0  0  0  0  0  0
   -6.9313   -1.0578  -18.8642 C   0  0  0  0  0  0  0  0  0  0  0  0
   -6.2310   -0.5780  -17.8111 N   0  0  0  0  0  0  0  0  0  0  0  0
   -5.1956    0.1847  -18.0766 C   0  0  0  0  0  0  0  0  0  0  0  0
   -4.7687    0.5242  -19.3926 C   0  0  0  0  0  0  0  0  0  0  0  0
   -3.6483    1.3653  -19.6272 C   0  0  0  0  0  0  0  0  0  0  0  0
   -3.2828    1.6938  -20.9041 C   0  0  0  0  0  0  0  0  0  0  0  0
   -4.0204    1.2061  -22.0046 C   0  0  0  0  0  0  0  0  0  0  0  0
   -5.0965    0.3737  -21.8069 C   0  0  0  0  0  0  0  0  0  0  0  0
   -5.4957    0.0082  -20.4900 C   0  0  0  0  0  0  0  0  0  0  0  0
   -5.6533    0.0163  -22.6669 H   0  0  0  0  0  0  0  0  0  0  0  0
   -3.7277    1.4788  -23.0137 H   0  0  0  0  0  0  0  0  0  0  0  0
   -2.4188    2.3260  -21.0789 H   0  0  0  0  0  0  0  0  0  0  0  0
   -3.1044    1.7478  -18.7691 H   0  0  0  0  0  0  0  0  0  0  0  0
   -4.6306    0.5723  -17.2286 H   0  0  0  0  0  0  0  0  0  0  0  0
   -7.7999   -1.6686  -18.6323 H   0  0  0  0  0  0  0  0  0  0  0  0
   -7.0373   -2.5589  -21.9648 C   0  0  0  0  0  0  0  0  0  0  0  0
   -8.3186   -2.8683  -22.7602 C   0  0  2  0  0  0  0  0  0  0  0  0
   -8.0402   -3.5867  -24.0855 C   0  0  0  0  0  0  0  0  0  0  0  0
   -7.2450   -5.1615  -23.7664 S   0  0  0  0  0  0  0  0  0  0  0  0
   -8.1134   -5.9214  -22.8787 O   0  0  0  0  0  0  0  0  0  0  0  0
   -5.8665   -4.9079  -23.3518 O   0  0  0  0  0  0  0  0  0  0  0  0
   -7.2716   -5.9403  -25.2684 N   0  0  0  0  0  0  0  0  0  0  0  0
   -6.4860   -5.3231  -26.3349 C   0  0  0  0  0  0  0  0  0  0  0  0
   -5.4292   -5.1873  -26.0720 H   0  0  0  0  0  0  0  0  0  0  0  0
   -6.5460   -5.9828  -27.2044 H   0  0  0  0  0  0  0  0  0  0  0  0
   -6.9245   -4.3712  -26.6436 H   0  0  0  0  0  0  0  0  0  0  0  0
   -6.9513   -7.3663  -25.1193 C   0  0  0  0  0  0  0  0  0  0  0  0
   -5.9165   -7.5266  -24.7764 H   0  0  0  0  0  0  0  0  0  0  0  0
   -7.6500   -7.8156  -24.4094 H   0  0  0  0  0  0  0  0  0  0  0  0
   -7.0827   -7.8488  -26.0937 H   0  0  0  0  0  0  0  0  0  0  0  0
   -7.3685   -3.0013  -24.7182 H   0  0  0  0  0  0  0  0  0  0  0  0
   -8.9582   -3.7865  -24.6449 H   0  0  0  0  0  0  0  0  0  0  0  0
   -8.9152   -3.5604  -22.1659 H   0  0  0  0  0  0  0  0  0  0  0  0
   -6.1850   -2.3523  -22.6282 H   0  0  0  0  0  0  0  0  0  0  0  0
   -6.7532   -3.3845  -21.3088 H   0  0  0  0  0  0  0  0  0  0  0  0
  -10.6032   -1.6185  -22.7560 C   0  0  0  0  0  0  0  0  0  0  0  0
  -11.2058   -2.5739  -21.9373 C   0  0  0  0  0  0  0  0  0  0  0  0
  -12.5806   -2.5958  -21.8270 C   0  0  0  0  0  0  0  0  0  0  0  0
  -13.1413   -3.5091  -21.0216 F   0  0  0  0  0  0  0  0  0  0  0  0
  -13.4179   -1.7135  -22.4982 C   0  0  0  0  0  0  0  0  0  0  0  0
  -12.8211   -0.7439  -23.2720 C   0  0  0  0  0  0  0  0  0  0  0  0
  -11.4344   -0.6717  -23.3678 C   0  0  0  0  0  0  0  0  0  0  0  0
  -10.8660    0.5069  -24.0815 C   0  0  0  0  0  0  0  0  0  0  0  0
  -11.5616    1.4403  -24.4626 O   0  0  0  0  0  0  0  0  0  0  0  0
  -13.3943    0.0031  -23.8045 H   0  0  0  0  0  0  0  0  0  0  0  0
  -14.4938   -1.7796  -22.3822 H   0  0  0  0  0  0  0  0  0  0  0  0
  -10.6257   -3.2911  -21.3684 H   0  0  0  0  0  0  0  0  0  0  0  0
   -7.6806   -0.4981  -24.1547 H   0  0  0  0  0  0  0  0  0  0  0  0
   -8.9622   -1.3949  -24.9956 H   0  0  0  0  0  0  0  0  0  0  0  0
   -9.6825    2.3582  -25.0634 H   0  0  0  0  0  0  0  0  0  0  0  0
   -8.3410    1.3846  -25.7323 H   0  0  0  0  0  0  0  0  0  0  0  0
   -9.2843    2.7821  -22.4415 H   0  0  0  0  0  0  0  0  0  0  0  0
   -7.8955    3.8694  -20.9629 H   0  0  0  0  0  0  0  0  0  0  0  0
   -6.7190    4.1778  -22.2390 H   0  0  0  0  0  0  0  0  0  0  0  0
   -6.7491    2.5630  -21.4771 H   0  0  0  0  0  0  0  0  0  0  0  0
  1  2  1  0
  2  3  1  0
  3  4  2  0
  3  5  1  0
  5  6  1  0
  6  7  1  0
  8  7  1  6
  8  9  1  0
  9 10  2  0
  9 11  1  0
 11 12  1  0
 12 13  2  0
 13 14  1  0
 14 15  2  0
 15 16  1  0
 16 17  2  0
 17 18  1  0
 18 19  2  0
 19 20  1  0
 20 21  2  0
 20 22  1  0
 19 23  1  0
 18 24  1  0
 17 25  1  0
 15 26  1  0
 13 27  1  0
 11 28  1  0
 28 29  1  0
 29 30  1  0
 30 31  1  0
 31 32  2  0
 31 33  2  0
 31 34  1  0
 34 35  1  0
 35 36  1  0
 35 37  1  0
 35 38  1  0
 34 39  1  0
 39 40  1  0
 39 41  1  0
 39 42  1  0
 30 43  1  0
 30 44  1  0
 29 45  1  1
 28 46  1  0
 28 47  1  0
  8 48  1  0
 48 49  2  0
 49 50  1  0
 50 51  1  0
 50 52  2  0
 52 53  1  0
 53 54  2  0
 54 55  1  0
 55 56  2  0
 53 57  1  0
 52 58  1  0
 49 59  1  0
  7 60  1  0
  7 61  1  0
  5 62  1  0
  5 63  1  0
  2 64  1  0
  1 65  1  0
  1 66  1  0
  1 67  1  0
 55  6  1  0
 29  8  1  0
 54 48  1  0
 21 12  1  0
 21 16  1  0
M  END
>  <cnnaffinities>  (40) 
[6.21941, 7.02094]

>  <score>  (40) 
6.21941

>  <index>  (40) 
41

>  <Smiles>  (40) 
C(N(C(=O)C(N1C([C@@]2(C(=O)N(c3c(nc(c4c(c(c(c(c34)[H])[H])[H])[H])[H])[H])C([C@@]2(C(S(=O)(=O)N(C([H])([H])[H])C([H])([H])[H])([H])[H])[H])([H])[H])c2c(c(F)c(c(c2C1=O)[H])[H])[H])([H])[H])([H])[H])[H])([H])([H])[H]

>  <h>  (40) 
<NA>

>  <Training>  (40) 
True

>  <Success>  (40) 
True

>  <enamine_searched>  (40) 
False

>  <enamine_id>  (40) 
nan

$$$$

     RDKit          3D

 67 72  0  0  0  0  0  0  0  0999 V2000
   -7.8650   -3.3159  -29.0897 C   0  0  0  0  0  0  0  0  0  0  0  0
   -8.5312   -2.3688  -28.2241 N   0  0  0  0  0  0  0  0  0  0  0  0
   -7.8579   -1.7189  -27.2485 C   0  0  0  0  0  0  0  0  0  0  0  0
   -6.7271   -2.0097  -26.8735 O   0  0  0  0  0  0  0  0  0  0  0  0
   -8.6708   -0.5744  -26.6383 C   0  0  0  0  0  0  0  0  0  0  0  0
   -9.2951   -1.0300  -25.4092 N   0  0  0  0  0  0  0  0  0  0  0  0
   -8.6114   -0.7063  -24.1661 C   0  0  0  0  0  0  0  0  0  0  0  0
   -9.0723   -1.5414  -22.9493 C   0  0  2  0  0  0  0  0  0  0  0  0
   -8.5777   -0.7700  -21.7019 C   0  0  0  0  0  0  0  0  0  0  0  0
   -9.0328    0.2551  -21.2394 O   0  0  0  0  0  0  0  0  0  0  0  0
   -7.4396   -1.3940  -21.2283 N   0  0  0  0  0  0  0  0  0  0  0  0
   -6.6440   -0.8137  -20.2046 C   0  0  0  0  0  0  0  0  0  0  0  0
   -6.9523   -1.0545  -18.8929 C   0  0  0  0  0  0  0  0  0  0  0  0
   -6.2497   -0.5834  -17.8303 N   0  0  0  0  0  0  0  0  0  0  0  0
   -5.2112    0.1751  -18.0878 C   0  0  0  0  0  0  0  0  0  0  0  0
   -4.7845    0.5196  -19.4033 C   0  0  0  0  0  0  0  0  0  0  0  0
   -3.6587    1.3556  -19.6245 C   0  0  0  0  0  0  0  0  0  0  0  0
   -3.2827    1.6833  -20.8977 C   0  0  0  0  0  0  0  0  0  0  0  0
   -4.0108    1.1936  -22.0039 C   0  0  0  0  0  0  0  0  0  0  0  0
   -5.0890    0.3647  -21.8170 C   0  0  0  0  0  0  0  0  0  0  0  0
   -5.5086    0.0079  -20.5049 C   0  0  0  0  0  0  0  0  0  0  0  0
   -5.6322   -0.0109  -22.6776 H   0  0  0  0  0  0  0  0  0  0  0  0
   -3.6909    1.4551  -23.0087 H   0  0  0  0  0  0  0  0  0  0  0  0
   -2.4153    2.3130  -21.0685 H   0  0  0  0  0  0  0  0  0  0  0  0
   -3.1126    1.7296  -18.7619 H   0  0  0  0  0  0  0  0  0  0  0  0
   -4.6387    0.5538  -17.2383 H   0  0  0  0  0  0  0  0  0  0  0  0
   -7.8212   -1.6664  -18.6643 H   0  0  0  0  0  0  0  0  0  0  0  0
   -7.0678   -2.5884  -21.9592 C   0  0  0  0  0  0  0  0  0  0  0  0
   -8.3212   -2.9092  -22.7705 C   0  0  2  0  0  0  0  0  0  0  0  0
   -7.9755   -3.7068  -24.0218 C   0  0  0  0  0  0  0  0  0  0  0  0
   -9.1708   -4.2732  -24.5912 N   0  0  0  0  0  0  0  0  0  0  0  0
   -9.2234   -4.9729  -25.7650 C   0  0  0  0  0  0  0  0  0  0  0  0
  -10.7479   -5.2400  -26.5489 S   0  0  0  0  0  0  0  0  0  0  0  0
   -9.9392   -6.1029  -27.8024 C   0  0  0  0  0  0  0  0  0  0  0  0
   -8.6586   -6.2105  -27.6495 N   0  0  0  0  0  0  0  0  0  0  0  0
   -8.2337   -5.5957  -26.4917 C   0  0  0  0  0  0  0  0  0  0  0  0
   -6.7763   -5.6814  -26.1296 C   0  0  0  0  0  0  0  0  0  0  0  0
   -6.2453   -6.2746  -26.8797 H   0  0  0  0  0  0  0  0  0  0  0  0
   -6.6380   -6.1744  -25.1591 H   0  0  0  0  0  0  0  0  0  0  0  0
   -6.3130   -4.6865  -26.0790 H   0  0  0  0  0  0  0  0  0  0  0  0
  -10.4902   -6.4595  -28.6652 H   0  0  0  0  0  0  0  0  0  0  0  0
  -10.0584   -4.0004  -24.1824 H   0  0  0  0  0  0  0  0  0  0  0  0
   -7.2863   -4.5103  -23.7288 H   0  0  0  0  0  0  0  0  0  0  0  0
   -7.4557   -3.0780  -24.7592 H   0  0  0  0  0  0  0  0  0  0  0  0
   -8.9732   -3.5350  -22.1441 H   0  0  0  0  0  0  0  0  0  0  0  0
   -6.2029   -2.4142  -22.6202 H   0  0  0  0  0  0  0  0  0  0  0  0
   -6.7991   -3.3979  -21.2712 H   0  0  0  0  0  0  0  0  0  0  0  0
  -10.5823   -1.6968  -22.9996 C   0  0  0  0  0  0  0  0  0  0  0  0
  -11.3014   -2.0044  -21.8404 C   0  0  0  0  0  0  0  0  0  0  0  0
  -12.6630   -2.2682  -21.8985 C   0  0  0  0  0  0  0  0  0  0  0  0
  -13.4605   -2.8733  -20.4749 Cl  0  0  0  0  0  0  0  0  0  0  0  0
  -13.3824   -2.1367  -23.0853 C   0  0  0  0  0  0  0  0  0  0  0  0
  -12.6721   -1.8282  -24.2318 C   0  0  0  0  0  0  0  0  0  0  0  0
  -11.2914   -1.6626  -24.2032 C   0  0  0  0  0  0  0  0  0  0  0  0
  -10.5810   -1.4757  -25.4991 C   0  0  0  0  0  0  0  0  0  0  0  0
  -11.1215   -1.6836  -26.5824 O   0  0  0  0  0  0  0  0  0  0  0  0
  -13.1572   -1.7196  -25.1919 H   0  0  0  0  0  0  0  0  0  0  0  0
  -14.4599   -2.2774  -23.1187 H   0  0  0  0  0  0  0  0  0  0  0  0
  -10.7822   -2.0383  -20.8901 H   0  0  0  0  0  0  0  0  0  0  0  0
   -8.7600    0.3571  -23.9429 H   0  0  0  0  0  0  0  0  0  0  0  0
   -7.5299   -0.8315  -24.3244 H   0  0  0  0  0  0  0  0  0  0  0  0
   -8.0321    0.2850  -26.4070 H   0  0  0  0  0  0  0  0  0  0  0  0
   -9.4530   -0.2531  -27.3378 H   0  0  0  0  0  0  0  0  0  0  0  0
   -9.5312   -2.2170  -28.2875 H   0  0  0  0  0  0  0  0  0  0  0  0
   -7.1601   -3.9014  -28.4925 H   0  0  0  0  0  0  0  0  0  0  0  0
   -7.3188   -2.8155  -29.9011 H   0  0  0  0  0  0  0  0  0  0  0  0
   -8.6014   -4.0025  -29.5051 H   0  0  0  0  0  0  0  0  0  0  0  0
  1  2  1  0
  2  3  1  0
  3  4  2  0
  3  5  1  0
  5  6  1  0
  6  7  1  0
  8  7  1  6
  8  9  1  0
  9 10  2  0
  9 11  1  0
 11 12  1  0
 12 13  2  0
 13 14  1  0
 14 15  2  0
 15 16  1  0
 16 17  2  0
 17 18  1  0
 18 19  2  0
 19 20  1  0
 20 21  2  0
 20 22  1  0
 19 23  1  0
 18 24  1  0
 17 25  1  0
 15 26  1  0
 13 27  1  0
 11 28  1  0
 28 29  1  0
 29 30  1  0
 30 31  1  0
 31 32  1  0
 32 33  1  0
 33 34  1  0
 34 35  2  0
 35 36  1  0
 36 37  1  0
 37 38  1  0
 37 39  1  0
 37 40  1  0
 34 41  1  0
 31 42  1  0
 30 43  1  0
 30 44  1  0
 29 45  1  1
 28 46  1  0
 28 47  1  0
  8 48  1  0
 48 49  2  0
 49 50  1  0
 50 51  1  0
 50 52  2  0
 52 53  1  0
 53 54  2  0
 54 55  1  0
 55 56  2  0
 53 57  1  0
 52 58  1  0
 49 59  1  0
  7 60  1  0
  7 61  1  0
  5 62  1  0
  5 63  1  0
  2 64  1  0
  1 65  1  0
  1 66  1  0
  1 67  1  0
 55  6  1  0
 29  8  1  0
 36 32  2  0
 54 48  1  0
 21 12  1  0
 21 16  1  0
M  END
>  <cnnaffinities>  (41) 
[5.86706]

>  <score>  (41) 
5.86706

>  <index>  (41) 
43

>  <Smiles>  (41) 
C(N(C(=O)C(N1C([C@@]2(C(=O)N(c3c(nc(c4c(c(c(c(c34)[H])[H])[H])[H])[H])[H])C([C@@]2(C(N(c2sc(nc2C([H])([H])[H])[H])[H])([H])[H])[H])([H])[H])c2c(c(Cl)c(c(c2C1=O)[H])[H])[H])([H])[H])([H])[H])[H])([H])([H])[H]

>  <h>  (41) 
<NA>

>  <Training>  (41) 
True

>  <Success>  (41) 
True

>  <enamine_searched>  (41) 
False

>  <enamine_id>  (41) 
nan

$$$$

     RDKit          3D

 60 64  0  0  0  0  0  0  0  0999 V2000
  -12.2546    3.9704  -21.6672 C   0  0  0  0  0  0  0  0  0  0  0  0
  -12.2779    2.8585  -22.5894 N   0  0  0  0  0  0  0  0  0  0  0  0
  -11.1577    2.4551  -23.2449 C   0  0  0  0  0  0  0  0  0  0  0  0
  -10.0503    2.9456  -23.0723 O   0  0  0  0  0  0  0  0  0  0  0  0
  -11.4201    1.3544  -24.2762 C   0  0  0  0  0  0  0  0  0  0  0  0
  -11.3135    0.0380  -23.6926 N   0  0  0  0  0  0  0  0  0  0  0  0
  -10.1157   -0.7686  -23.9346 C   0  0  0  0  0  0  0  0  0  0  0  0
   -9.6769   -1.6494  -22.7135 C   0  0  2  0  0  0  0  0  0  0  0  0
   -9.0342   -0.7449  -21.6173 C   0  0  0  0  0  0  0  0  0  0  0  0
   -9.5224    0.2378  -21.1121 O   0  0  0  0  0  0  0  0  0  0  0  0
   -7.7783   -1.2313  -21.3067 N   0  0  0  0  0  0  0  0  0  0  0  0
   -7.0265   -0.7018  -20.2181 C   0  0  0  0  0  0  0  0  0  0  0  0
   -7.3981   -0.9626  -18.9233 C   0  0  0  0  0  0  0  0  0  0  0  0
   -6.7275   -0.5194  -17.8312 N   0  0  0  0  0  0  0  0  0  0  0  0
   -5.6653    0.2230  -18.0162 C   0  0  0  0  0  0  0  0  0  0  0  0
   -5.1689    0.5809  -19.3001 C   0  0  0  0  0  0  0  0  0  0  0  0
   -4.0313    1.4159  -19.4529 C   0  0  0  0  0  0  0  0  0  0  0  0
   -3.5644    1.7166  -20.7020 C   0  0  0  0  0  0  0  0  0  0  0  0
   -4.2055    1.1942  -21.8469 C   0  0  0  0  0  0  0  0  0  0  0  0
   -5.3157    0.3941  -21.7246 C   0  0  0  0  0  0  0  0  0  0  0  0
   -5.8420    0.0800  -20.4423 C   0  0  0  0  0  0  0  0  0  0  0  0
   -5.8008   -0.0027  -22.6122 H   0  0  0  0  0  0  0  0  0  0  0  0
   -3.8092    1.4279  -22.8311 H   0  0  0  0  0  0  0  0  0  0  0  0
   -2.6968    2.3585  -20.8245 H   0  0  0  0  0  0  0  0  0  0  0  0
   -3.5519    1.8177  -18.5627 H   0  0  0  0  0  0  0  0  0  0  0  0
   -5.1394    0.5742  -17.1254 H   0  0  0  0  0  0  0  0  0  0  0  0
   -8.2814   -1.5625  -18.7082 H   0  0  0  0  0  0  0  0  0  0  0  0
   -7.5547   -2.5657  -21.8192 C   0  0  0  0  0  0  0  0  0  0  0  0
   -8.4974   -2.6410  -23.0380 C   0  0  2  0  0  0  0  0  0  0  0  0
   -7.7091   -2.3372  -24.3207 C   0  0  0  0  0  0  0  0  0  0  0  0
   -6.7210   -3.3325  -24.4697 O   0  0  0  0  0  0  0  0  0  0  0  0
   -5.9295   -3.1431  -25.6158 C   0  0  0  0  0  0  0  0  0  0  0  0
   -5.4416   -2.1568  -25.6035 H   0  0  0  0  0  0  0  0  0  0  0  0
   -6.5200   -3.2335  -26.5419 H   0  0  0  0  0  0  0  0  0  0  0  0
   -5.1542   -3.9143  -25.6174 H   0  0  0  0  0  0  0  0  0  0  0  0
   -7.2293   -1.3434  -24.2740 H   0  0  0  0  0  0  0  0  0  0  0  0
   -8.3866   -2.3563  -25.1870 H   0  0  0  0  0  0  0  0  0  0  0  0
   -8.8457   -3.6651  -23.1950 H   0  0  0  0  0  0  0  0  0  0  0  0
   -6.5066   -2.7152  -22.0968 H   0  0  0  0  0  0  0  0  0  0  0  0
   -7.8051   -3.3264  -21.0660 H   0  0  0  0  0  0  0  0  0  0  0  0
  -10.9758   -2.3427  -22.2102 C   0  0  0  0  0  0  0  0  0  0  0  0
  -11.0823   -3.4689  -21.5104 C   0  0  0  0  0  0  0  0  0  0  0  0
  -12.8833   -3.7179  -21.1066 C   0  0  0  0  0  0  0  0  0  0  0  0
  -12.5688   -5.2466  -19.0929 Cl  0  0  0  0  0  0  0  0  0  0  0  0
  -12.9227   -3.7888  -20.7668 C   0  0  0  0  0  0  0  0  0  0  0  0
  -13.3902   -2.2839  -21.6910 C   0  0  0  0  0  0  0  0  0  0  0  0
  -12.2877   -1.6827  -22.3632 C   0  0  0  0  0  0  0  0  0  0  0  0
  -12.4378   -0.4186  -23.0591 C   0  0  0  0  0  0  0  0  0  0  0  0
  -13.4903    0.2316  -23.0688 O   0  0  0  0  0  0  0  0  0  0  0  0
  -14.3225   -2.3987  -22.2183 H   0  0  0  0  0  0  0  0  0  0  0  0
  -12.9617   -3.1659  -19.8790 H   0  0  0  0  0  0  0  0  0  0  0  0
  -10.3788   -4.2742  -21.4108 H   0  0  0  0  0  0  0  0  0  0  0  0
   -9.3156   -0.0805  -24.2216 H   0  0  0  0  0  0  0  0  0  0  0  0
  -10.3153   -1.4524  -24.7680 H   0  0  0  0  0  0  0  0  0  0  0  0
  -12.4403    1.4847  -24.6425 H   0  0  0  0  0  0  0  0  0  0  0  0
  -10.7110    1.4718  -25.0971 H   0  0  0  0  0  0  0  0  0  0  0  0
  -13.1195    2.2942  -22.6629 H   0  0  0  0  0  0  0  0  0  0  0  0
  -12.2615    3.6342  -20.6224 H   0  0  0  0  0  0  0  0  0  0  0  0
  -13.1275    4.6013  -21.8565 H   0  0  0  0  0  0  0  0  0  0  0  0
  -11.3366    4.5378  -21.8441 H   0  0  0  0  0  0  0  0  0  0  0  0
  1  2  1  0
  2  3  1  0
  3  4  2  0
  3  5  1  0
  5  6  1  0
  6  7  1  0
  8  7  1  6
  8  9  1  0
  9 10  2  0
  9 11  1  0
 11 12  1  0
 12 13  2  0
 13 14  1  0
 14 15  2  0
 15 16  1  0
 16 17  2  0
 17 18  1  0
 18 19  2  0
 19 20  1  0
 20 21  2  0
 20 22  1  0
 19 23  1  0
 18 24  1  0
 17 25  1  0
 15 26  1  0
 13 27  1  0
 11 28  1  0
 28 29  1  0
 29 30  1  0
 30 31  1  0
 31 32  1  0
 32 33  1  0
 32 34  1  0
 32 35  1  0
 30 36  1  0
 30 37  1  0
 29 38  1  6
 28 39  1  0
 28 40  1  0
  8 41  1  0
 41 42  2  0
 42 43  1  0
 43 44  1  0
 43 45  2  0
 45 46  1  0
 46 47  2  0
 47 48  1  0
 48 49  2  0
 46 50  1  0
 45 51  1  0
 42 52  1  0
  7 53  1  0
  7 54  1  0
  5 55  1  0
  5 56  1  0
  2 57  1  0
  1 58  1  0
  1 59  1  0
  1 60  1  0
 48  6  1  0
 29  8  1  0
 47 41  1  0
 21 12  1  0
 21 16  1  0
M  END
>  <cnnaffinities>  (42) 
[6.63811]

>  <score>  (42) 
6.63811

>  <index>  (42) 
44

>  <Smiles>  (42) 
C(N(C(=O)C(N1C([C@@]2(C(=O)N(c3c(nc(c4c(c(c(c(c34)[H])[H])[H])[H])[H])[H])C([C@@]2(C(OC([H])([H])[H])([H])[H])[H])([H])[H])c2c(c(Cl)c(c(c2C1=O)[H])[H])[H])([H])[H])([H])[H])[H])([H])([H])[H]

>  <h>  (42) 
<NA>

>  <Training>  (42) 
True

>  <Success>  (42) 
True

>  <enamine_searched>  (42) 
False

>  <enamine_id>  (42) 
nan

$$$$

     RDKit          3D

 66 71  0  0  0  0  0  0  0  0999 V2000
   -7.3616    3.3601  -21.8408 C   0  0  0  0  0  0  0  0  0  0  0  0
   -8.2885    2.9152  -22.8692 N   0  0  0  0  0  0  0  0  0  0  0  0
   -7.7481    2.1986  -23.8964 C   0  0  0  0  0  0  0  0  0  0  0  0
   -6.5430    2.0335  -24.0215 O   0  0  0  0  0  0  0  0  0  0  0  0
   -8.7289    1.5972  -24.9009 C   0  0  0  0  0  0  0  0  0  0  0  0
   -9.4078    0.4499  -24.3355 N   0  0  0  0  0  0  0  0  0  0  0  0
   -8.6720   -0.7911  -24.1702 C   0  0  0  0  0  0  0  0  0  0  0  0
   -9.0607   -1.5285  -22.8645 C   0  0  2  0  0  0  0  0  0  0  0  0
   -8.5309   -0.7480  -21.6358 C   0  0  0  0  0  0  0  0  0  0  0  0
   -8.9950    0.2555  -21.1385 O   0  0  0  0  0  0  0  0  0  0  0  0
   -7.4020   -1.3888  -21.1851 N   0  0  0  0  0  0  0  0  0  0  0  0
   -6.6064   -0.8163  -20.1675 C   0  0  0  0  0  0  0  0  0  0  0  0
   -6.9250   -1.0501  -18.8575 C   0  0  0  0  0  0  0  0  0  0  0  0
   -6.2241   -0.5691  -17.8044 N   0  0  0  0  0  0  0  0  0  0  0  0
   -5.1899    0.1933  -18.0708 C   0  0  0  0  0  0  0  0  0  0  0  0
   -4.7589    0.5297  -19.3859 C   0  0  0  0  0  0  0  0  0  0  0  0
   -3.6367    1.3655  -19.6270 C   0  0  0  0  0  0  0  0  0  0  0  0
   -3.2695    1.6860  -20.9039 C   0  0  0  0  0  0  0  0  0  0  0  0
   -4.0063    1.1940  -22.0037 C   0  0  0  0  0  0  0  0  0  0  0  0
   -5.0805    0.3619  -21.8012 C   0  0  0  0  0  0  0  0  0  0  0  0
   -5.4862    0.0085  -20.4840 C   0  0  0  0  0  0  0  0  0  0  0  0
   -5.6365   -0.0061  -22.6594 H   0  0  0  0  0  0  0  0  0  0  0  0
   -3.7151    1.4619  -23.0149 H   0  0  0  0  0  0  0  0  0  0  0  0
   -2.4045    2.3160  -21.0831 H   0  0  0  0  0  0  0  0  0  0  0  0
   -3.0925    1.7530  -18.7697 H   0  0  0  0  0  0  0  0  0  0  0  0
   -4.6251    0.5841  -17.2232 H   0  0  0  0  0  0  0  0  0  0  0  0
   -7.7931   -1.6622  -18.6243 H   0  0  0  0  0  0  0  0  0  0  0  0
   -7.0434   -2.5756  -21.9265 C   0  0  0  0  0  0  0  0  0  0  0  0
   -8.3132   -2.8967  -22.7262 C   0  0  2  0  0  0  0  0  0  0  0  0
   -8.0070   -3.6810  -24.0194 C   0  0  0  0  0  0  0  0  0  0  0  0
   -7.4138   -5.0588  -23.8046 C   0  0  0  0  0  0  0  0  0  0  0  0
   -8.2459   -6.1733  -23.6767 C   0  0  0  0  0  0  0  0  0  0  0  0
   -7.7289   -7.4460  -23.4508 C   0  0  0  0  0  0  0  0  0  0  0  0
   -6.3599   -7.6346  -23.3195 C   0  0  0  0  0  0  0  0  0  0  0  0
   -5.5152   -6.5418  -23.4854 C   0  0  0  0  0  0  0  0  0  0  0  0
   -6.0340   -5.2760  -23.7470 C   0  0  0  0  0  0  0  0  0  0  0  0
   -5.3463   -4.4465  -23.9064 H   0  0  0  0  0  0  0  0  0  0  0  0
   -4.4422   -6.6835  -23.4157 H   0  0  0  0  0  0  0  0  0  0  0  0
   -5.9461   -8.6138  -23.0916 H   0  0  0  0  0  0  0  0  0  0  0  0
   -8.4257   -8.2800  -23.3895 H   0  0  0  0  0  0  0  0  0  0  0  0
   -9.3253   -6.0608  -23.7600 H   0  0  0  0  0  0  0  0  0  0  0  0
   -8.9342   -3.7867  -24.5947 H   0  0  0  0  0  0  0  0  0  0  0  0
   -7.3131   -3.0944  -24.6338 H   0  0  0  0  0  0  0  0  0  0  0  0
   -8.9455   -3.5314  -22.1019 H   0  0  0  0  0  0  0  0  0  0  0  0
   -6.7684   -3.3894  -21.2480 H   0  0  0  0  0  0  0  0  0  0  0  0
   -6.1890   -2.3979  -22.6001 H   0  0  0  0  0  0  0  0  0  0  0  0
  -10.5722   -1.5889  -22.8052 C   0  0  0  0  0  0  0  0  0  0  0  0
  -11.2103   -2.5034  -21.9675 C   0  0  0  0  0  0  0  0  0  0  0  0
  -12.5885   -2.5084  -21.8775 C   0  0  0  0  0  0  0  0  0  0  0  0
  -13.3483   -3.6056  -20.7713 Cl  0  0  0  0  0  0  0  0  0  0  0  0
  -13.3873   -1.6371  -22.6166 C   0  0  0  0  0  0  0  0  0  0  0  0
  -12.7594   -0.7012  -23.4087 C   0  0  0  0  0  0  0  0  0  0  0  0
  -11.3708   -0.6473  -23.4672 C   0  0  0  0  0  0  0  0  0  0  0  0
  -10.7605    0.5060  -24.1879 C   0  0  0  0  0  0  0  0  0  0  0  0
  -11.4290    1.4533  -24.5878 O   0  0  0  0  0  0  0  0  0  0  0  0
  -13.3161    0.0326  -23.9785 H   0  0  0  0  0  0  0  0  0  0  0  0
  -14.4682   -1.6798  -22.5339 H   0  0  0  0  0  0  0  0  0  0  0  0
  -10.6426   -3.2013  -21.3623 H   0  0  0  0  0  0  0  0  0  0  0  0
   -8.8832   -1.4604  -25.0149 H   0  0  0  0  0  0  0  0  0  0  0  0
   -7.6018   -0.5596  -24.1778 H   0  0  0  0  0  0  0  0  0  0  0  0
   -9.5071    2.3105  -25.1990 H   0  0  0  0  0  0  0  0  0  0  0  0
   -8.1459    1.2999  -25.7781 H   0  0  0  0  0  0  0  0  0  0  0  0
   -9.2499    2.7520  -22.5850 H   0  0  0  0  0  0  0  0  0  0  0  0
   -6.6965    4.1308  -22.2435 H   0  0  0  0  0  0  0  0  0  0  0  0
   -7.9097    3.7846  -20.9992 H   0  0  0  0  0  0  0  0  0  0  0  0
   -6.7438    2.5145  -21.5045 H   0  0  0  0  0  0  0  0  0  0  0  0
  1  2  1  0
  2  3  1  0
  3  4  2  0
  3  5  1  0
  5  6  1  0
  6  7  1  0
  8  7  1  6
  8  9  1  0
  9 10  2  0
  9 11  1  0
 11 12  1  0
 12 13  2  0
 13 14  1  0
 14 15  2  0
 15 16  1  0
 16 17  2  0
 17 18  1  0
 18 19  2  0
 19 20  1  0
 20 21  2  0
 20 22  1  0
 19 23  1  0
 18 24  1  0
 17 25  1  0
 15 26  1  0
 13 27  1  0
 11 28  1  0
 28 29  1  0
 29 30  1  0
 30 31  1  0
 31 32  2  0
 32 33  1  0
 33 34  2  0
 34 35  1  0
 35 36  2  0
 36 37  1  0
 35 38  1  0
 34 39  1  0
 33 40  1  0
 32 41  1  0
 30 42  1  0
 30 43  1  0
 29 44  1  1
 28 45  1  0
 28 46  1  0
  8 47  1  0
 47 48  2  0
 48 49  1  0
 49 50  1  0
 49 51  2  0
 51 52  1  0
 52 53  2  0
 53 54  1  0
 54 55  2  0
 52 56  1  0
 51 57  1  0
 48 58  1  0
  7 59  1  0
  7 60  1  0
  5 61  1  0
  5 62  1  0
  2 63  1  0
  1 64  1  0
  1 65  1  0
  1 66  1  0
 54  6  1  0
 29  8  1  0
 36 31  1  0
 53 47  1  0
 21 12  1  0
 21 16  1  0
M  END
>  <cnnaffinities>  (43) 
[6.4147, 6.44811]

>  <score>  (43) 
6.4147

>  <index>  (43) 
45

>  <Smiles>  (43) 
C(N(C(=O)C(N1C([C@@]2(C(=O)N(c3c(nc(c4c(c(c(c(c34)[H])[H])[H])[H])[H])[H])C([C@@]2(C(c2c(c(c(c(c2[H])[H])[H])[H])[H])([H])[H])[H])([H])[H])c2c(c(Cl)c(c(c2C1=O)[H])[H])[H])([H])[H])([H])[H])[H])([H])([H])[H]

>  <h>  (43) 
<NA>

>  <Training>  (43) 
True

>  <Success>  (43) 
True

>  <enamine_searched>  (43) 
False

>  <enamine_id>  (43) 
nan

$$$$

     RDKit          3D

 50 54  0  0  0  0  0  0  0  0999 V2000
  -10.3877   -1.0219  -23.3553 C   0  0  0  0  0  0  0  0  0  0  0  0
   -8.9693   -1.4186  -22.9663 C   0  0  1  0  0  0  0  0  0  0  0  0
   -8.3672   -0.4977  -21.8946 C   0  0  0  0  0  0  0  0  0  0  0  0
   -7.3923   -1.3501  -21.2373 N   0  0  0  0  0  0  0  0  0  0  0  0
   -6.5844   -0.8674  -20.1836 C   0  0  0  0  0  0  0  0  0  0  0  0
   -6.8886   -1.1489  -18.8774 C   0  0  0  0  0  0  0  0  0  0  0  0
   -6.2253   -0.6214  -17.8190 N   0  0  0  0  0  0  0  0  0  0  0  0
   -5.2205    0.1839  -18.0662 C   0  0  0  0  0  0  0  0  0  0  0  0
   -4.7832    0.5357  -19.3749 C   0  0  0  0  0  0  0  0  0  0  0  0
   -3.6696    1.3861  -19.6074 C   0  0  0  0  0  0  0  0  0  0  0  0
   -3.3078    1.7106  -20.8849 C   0  0  0  0  0  0  0  0  0  0  0  0
   -4.0347    1.2042  -21.9869 C   0  0  0  0  0  0  0  0  0  0  0  0
   -5.0950    0.3555  -21.7897 C   0  0  0  0  0  0  0  0  0  0  0  0
   -5.4945    0.0084  -20.4740 C   0  0  0  0  0  0  0  0  0  0  0  0
   -5.6247   -0.0785  -22.6320 H   0  0  0  0  0  0  0  0  0  0  0  0
   -3.7307    1.4572  -22.9976 H   0  0  0  0  0  0  0  0  0  0  0  0
   -2.4548    2.3578  -21.0692 H   0  0  0  0  0  0  0  0  0  0  0  0
   -3.1197    1.7723  -18.7530 H   0  0  0  0  0  0  0  0  0  0  0  0
   -4.6920    0.5982  -17.2061 H   0  0  0  0  0  0  0  0  0  0  0  0
   -7.7143   -1.8139  -18.6324 H   0  0  0  0  0  0  0  0  0  0  0  0
   -7.6355   -2.6974  -21.4188 C   0  0  0  0  0  0  0  0  0  0  0  0
   -6.9911   -3.5839  -20.8979 O   0  0  0  0  0  0  0  0  0  0  0  0
   -8.8231   -2.8704  -22.3805 C   0  0  1  0  0  0  0  0  0  0  0  0
  -10.0693   -3.2866  -21.5584 C   0  0  0  0  0  0  0  0  0  0  0  0
  -11.1910   -3.6908  -22.4007 N   0  0  0  0  0  0  0  0  0  0  0  0
  -12.5722   -3.5280  -21.9729 C   0  0  0  0  0  0  0  0  0  0  0  0
  -13.3071   -2.5060  -22.7438 C   0  0  0  0  0  0  0  0  0  0  0  0
  -13.9416   -1.7063  -23.2923 N   0  0  0  0  0  0  0  0  0  0  0  0
  -12.6262   -3.2728  -20.9123 H   0  0  0  0  0  0  0  0  0  0  0  0
  -13.0869   -4.4872  -22.1206 H   0  0  0  0  0  0  0  0  0  0  0  0
  -10.9901   -4.5612  -23.4403 C   0  0  0  0  0  0  0  0  0  0  0  0
  -11.9184   -5.1360  -23.9842 O   0  0  0  0  0  0  0  0  0  0  0  0
   -9.5761   -4.7530  -23.8823 C   0  0  0  0  0  0  0  0  0  0  0  0
   -9.3339   -5.7463  -24.8271 C   0  0  0  0  0  0  0  0  0  0  0  0
   -8.0692   -5.9354  -25.3476 C   0  0  0  0  0  0  0  0  0  0  0  0
   -7.0521   -5.0864  -24.9206 C   0  0  0  0  0  0  0  0  0  0  0  0
   -5.8183   -5.2538  -25.4257 F   0  0  0  0  0  0  0  0  0  0  0  0
   -7.2575   -4.1088  -23.9651 C   0  0  0  0  0  0  0  0  0  0  0  0
   -8.5395   -3.9363  -23.4194 C   0  0  0  0  0  0  0  0  0  0  0  0
   -6.4023   -3.5413  -23.6073 H   0  0  0  0  0  0  0  0  0  0  0  0
   -7.8606   -6.7359  -26.0479 H   0  0  0  0  0  0  0  0  0  0  0  0
  -10.1737   -6.3608  -25.1345 H   0  0  0  0  0  0  0  0  0  0  0  0
   -9.7961   -4.1067  -20.8875 H   0  0  0  0  0  0  0  0  0  0  0  0
  -10.3492   -2.4287  -20.9433 H   0  0  0  0  0  0  0  0  0  0  0  0
   -9.1362   -0.1477  -21.1867 H   0  0  0  0  0  0  0  0  0  0  0  0
   -7.9044    0.4020  -22.3135 H   0  0  0  0  0  0  0  0  0  0  0  0
   -8.3194   -1.3902  -23.8520 H   0  0  0  0  0  0  0  0  0  0  0  0
  -10.4383   -0.0367  -23.8268 H   0  0  0  0  0  0  0  0  0  0  0  0
  -11.0281   -0.9975  -22.4674 H   0  0  0  0  0  0  0  0  0  0  0  0
  -10.8071   -1.7626  -24.0399 H   0  0  0  0  0  0  0  0  0  0  0  0
  1  2  1  0
  2  3  1  0
  3  4  1  0
  4  5  1  0
  5  6  2  0
  6  7  1  0
  7  8  2  0
  8  9  1  0
  9 10  2  0
 10 11  1  0
 11 12  2  0
 12 13  1  0
 13 14  2  0
 13 15  1  0
 12 16  1  0
 11 17  1  0
 10 18  1  0
  8 19  1  0
  6 20  1  0
  4 21  1  0
 21 22  2  0
 21 23  1  0
 23 24  1  1
 24 25  1  0
 25 26  1  0
 26 27  1  0
 27 28  3  0
 26 29  1  0
 26 30  1  0
 25 31  1  0
 31 32  2  0
 31 33  1  0
 33 34  2  0
 34 35  1  0
 35 36  2  0
 36 37  1  0
 36 38  1  0
 38 39  2  0
 38 40  1  0
 35 41  1  0
 34 42  1  0
 24 43  1  0
 24 44  1  0
  3 45  1  0
  3 46  1  0
  2 47  1  6
  1 48  1  0
  1 49  1  0
  1 50  1  0
 23  2  1  0
 39 33  1  0
 14  5  1  0
 39 23  1  0
 14  9  1  0
M  END
>  <cnnaffinities>  (44) 
[6.0424]

>  <score>  (44) 
6.0424

>  <index>  (44) 
46

>  <Smiles>  (44) 
C([C@]1(C(N(c2c(nc(c3c(c(c(c(c23)[H])[H])[H])[H])[H])[H])C(=O)[C@]21C(N(C(C#N)([H])[H])C(=O)c1c(c(c(F)c(c21)[H])[H])[H])([H])[H])([H])[H])[H])([H])([H])[H]

>  <h>  (44) 
<NA>

>  <Training>  (44) 
True

>  <Success>  (44) 
True

>  <enamine_searched>  (44) 
False

>  <enamine_id>  (44) 
nan

$$$$

     RDKit          3D

 58 63  0  0  0  0  0  0  0  0999 V2000
   -8.9165    0.4871  -21.1277 O   0  0  0  0  0  0  0  0  0  0  0  0
   -8.3328   -0.2944  -21.8539 C   0  0  0  0  0  0  0  0  0  0  0  0
   -7.4445   -1.3963  -21.2655 C   0  0  0  0  0  0  0  0  0  0  0  0
   -6.5706   -0.8410  -20.1685 C   0  0  0  0  0  0  0  0  0  0  0  0
   -6.8776   -1.0505  -18.8477 C   0  0  0  0  0  0  0  0  0  0  0  0
   -6.1902   -0.5456  -17.7910 N   0  0  0  0  0  0  0  0  0  0  0  0
   -5.1603    0.2166  -18.0630 C   0  0  0  0  0  0  0  0  0  0  0  0
   -4.7305    0.5366  -19.3807 C   0  0  0  0  0  0  0  0  0  0  0  0
   -3.6160    1.3790  -19.6192 C   0  0  0  0  0  0  0  0  0  0  0  0
   -3.2432    1.6846  -20.8997 C   0  0  0  0  0  0  0  0  0  0  0  0
   -3.9758    1.1678  -21.9908 C   0  0  0  0  0  0  0  0  0  0  0  0
   -5.0490    0.3360  -21.7851 C   0  0  0  0  0  0  0  0  0  0  0  0
   -5.4610    0.0013  -20.4683 C   0  0  0  0  0  0  0  0  0  0  0  0
   -5.5752   -0.0785  -22.6394 H   0  0  0  0  0  0  0  0  0  0  0  0
   -3.6513    1.3969  -23.0031 H   0  0  0  0  0  0  0  0  0  0  0  0
   -2.3794    2.3138  -21.0861 H   0  0  0  0  0  0  0  0  0  0  0  0
   -3.0780    1.7766  -18.7622 H   0  0  0  0  0  0  0  0  0  0  0  0
   -4.6081    0.6264  -17.2158 H   0  0  0  0  0  0  0  0  0  0  0  0
   -7.7351   -1.6647  -18.5776 H   0  0  0  0  0  0  0  0  0  0  0  0
   -8.0910   -2.1797  -20.8469 H   0  0  0  0  0  0  0  0  0  0  0  0
   -6.8439   -1.8458  -22.0639 H   0  0  0  0  0  0  0  0  0  0  0  0
   -8.4117   -0.2250  -23.2472 N   0  0  0  0  0  0  0  0  0  0  0  0
   -8.6555   -1.3882  -24.0953 C   0  0  0  0  0  0  0  0  0  0  0  0
  -10.1245   -1.5933  -24.4321 C   0  0  0  0  0  0  0  0  0  0  0  0
  -10.5561   -1.7180  -25.7556 C   0  0  0  0  0  0  0  0  0  0  0  0
  -11.9120   -1.8203  -26.0591 C   0  0  0  0  0  0  0  0  0  0  0  0
  -12.8610   -1.8257  -25.0404 C   0  0  0  0  0  0  0  0  0  0  0  0
  -12.4177   -1.7871  -23.7261 C   0  0  0  0  0  0  0  0  0  0  0  0
  -13.5926   -1.9626  -22.4495 Cl  0  0  0  0  0  0  0  0  0  0  0  0
  -11.0710   -1.6561  -23.4092 C   0  0  0  0  0  0  0  0  0  0  0  0
  -10.7772   -1.5850  -22.3637 H   0  0  0  0  0  0  0  0  0  0  0  0
  -13.9298   -1.9161  -25.2199 H   0  0  0  0  0  0  0  0  0  0  0  0
  -12.2025   -1.9761  -27.0937 H   0  0  0  0  0  0  0  0  0  0  0  0
   -9.8332   -1.7463  -26.5707 H   0  0  0  0  0  0  0  0  0  0  0  0
   -8.2638   -2.2630  -23.5652 H   0  0  0  0  0  0  0  0  0  0  0  0
   -8.0988   -1.2567  -25.0285 H   0  0  0  0  0  0  0  0  0  0  0  0
   -8.5858    1.0978  -23.7952 C   0  0  2  0  0  0  0  0  0  0  0  0
   -7.4367    2.0949  -23.5069 C   0  0  0  0  0  0  0  0  0  0  0  0
   -7.9872    3.3166  -24.2129 N   0  0  1  0  0  4  0  0  0  0  0  0
   -7.1095    3.9342  -25.2264 C   0  0  0  0  0  0  0  0  0  0  0  0
   -7.3753    5.3598  -25.6022 C   0  0  0  0  0  0  0  0  0  0  0  0
   -6.1585    4.9956  -24.7686 C   0  0  0  0  0  0  0  0  0  0  0  0
   -5.1698    5.0375  -25.2179 H   0  0  0  0  0  0  0  0  0  0  0  0
   -6.1598    5.2247  -23.7031 H   0  0  0  0  0  0  0  0  0  0  0  0
   -7.2454    5.6524  -26.6406 H   0  0  0  0  0  0  0  0  0  0  0  0
   -8.2196    5.8556  -25.1216 H   0  0  0  0  0  0  0  0  0  0  0  0
   -6.7921    3.2412  -26.0009 H   0  0  0  0  0  0  0  0  0  0  0  0
   -9.2835    2.7265  -24.7517 C   0  0  2  0  0  0  0  0  0  0  0  0
   -9.8204    1.9994  -23.5146 C   0  0  0  0  0  0  0  0  0  0  0  0
  -10.7731    1.4855  -23.6607 H   0  0  0  0  0  0  0  0  0  0  0  0
   -9.7965    2.5719  -22.5803 H   0  0  0  0  0  0  0  0  0  0  0  0
   -8.8359    1.3659  -25.3012 C   0  0  0  0  0  0  0  0  0  0  0  0
   -9.6494    0.7819  -25.7313 H   0  0  0  0  0  0  0  0  0  0  0  0
   -7.9510    1.3614  -25.9504 H   0  0  0  0  0  0  0  0  0  0  0  0
   -9.8436    3.4394  -25.3341 H   0  0  0  0  0  0  0  0  0  0  0  0
   -8.2192    4.0462  -23.5043 H   0  0  0  0  0  0  0  0  0  0  0  0
   -6.4779    1.8106  -23.9465 H   0  0  0  0  0  0  0  0  0  0  0  0
   -7.3110    2.2866  -22.4375 H   0  0  0  0  0  0  0  0  0  0  0  0
  1  2  2  0
  2  3  1  0
  3  4  1  0
  4  5  2  0
  5  6  1  0
  6  7  2  0
  7  8  1  0
  8  9  2  0
  9 10  1  0
 10 11  2  0
 11 12  1  0
 12 13  2  0
 12 14  1  0
 11 15  1  0
 10 16  1  0
  9 17  1  0
  7 18  1  0
  5 19  1  0
  3 20  1  0
  3 21  1  0
  2 22  1  0
 22 23  1  0
 23 24  1  0
 24 25  2  0
 25 26  1  0
 26 27  2  0
 27 28  1  0
 28 29  1  0
 28 30  2  0
 30 31  1  0
 27 32  1  0
 26 33  1  0
 25 34  1  0
 23 35  1  0
 23 36  1  0
 37 22  1  6
 37 38  1  0
 38 39  1  0
 39 40  1  0
 40 41  1  0
 41 42  1  0
 42 43  1  0
 42 44  1  0
 41 45  1  0
 41 46  1  0
 40 47  1  0
 39 48  1  0
 48 49  1  0
 49 50  1  0
 49 51  1  0
 48 52  1  0
 52 53  1  0
 52 54  1  0
 48 55  1  6
 39 56  1  1
 38 57  1  0
 38 58  1  0
 13  4  1  0
 30 24  1  0
 49 37  1  0
 13  8  1  0
 52 37  1  0
 42 40  1  0
M  CHG  1  39   1
M  END
>  <cnnaffinities>  (45) 
[5.84117, 5.70207, 5.726]

>  <score>  (45) 
5.84117

>  <index>  (45) 
47

>  <Smiles>  (45) 
O=C(C(c1c(nc(c2c(c(c(c(c12)[H])[H])[H])[H])[H])[H])([H])[H])N(C(c1c(c(c(c(Cl)c1[H])[H])[H])[H])([H])[H])[C@]12C([N@@+](C3(C(C3([H])[H])([H])[H])[H])([C@](C1([H])[H])(C2([H])[H])[H])[H])([H])[H]

>  <h>  (45) 
<NA>

>  <Training>  (45) 
True

>  <Success>  (45) 
True

>  <enamine_searched>  (45) 
False

>  <enamine_id>  (45) 
nan

$$$$

     RDKit          3D

 46 48  0  0  0  0  0  0  0  0999 V2000
  -10.9548   -6.4772  -25.5423 C   0  0  0  0  0  0  0  0  0  0  0  0
   -9.5941   -6.6120  -24.8465 C   0  0  0  0  0  0  0  0  0  0  0  0
   -8.5065   -6.7496  -25.9094 C   0  0  0  0  0  0  0  0  0  0  0  0
   -8.5058   -5.8740  -26.5704 H   0  0  0  0  0  0  0  0  0  0  0  0
   -8.6921   -7.6374  -26.5289 H   0  0  0  0  0  0  0  0  0  0  0  0
   -7.5079   -6.8488  -25.4695 H   0  0  0  0  0  0  0  0  0  0  0  0
   -9.3134   -5.4931  -23.8173 C   0  0  0  0  0  0  0  0  0  0  0  0
   -8.1157   -5.8507  -22.9001 C   0  0  0  0  0  0  0  0  0  0  0  0
   -6.9826   -4.8466  -22.9628 C   0  0  0  0  0  0  0  0  0  0  0  0
   -7.4974   -3.5303  -22.6324 N   0  0  0  0  0  0  0  0  0  0  0  0
   -6.7240   -2.7630  -21.8071 C   0  0  0  0  0  0  0  0  0  0  0  0
   -5.5817   -3.0816  -21.5066 O   0  0  0  0  0  0  0  0  0  0  0  0
   -7.3859   -1.4981  -21.2687 C   0  0  0  0  0  0  0  0  0  0  0  0
   -6.5879   -0.8534  -20.1819 C   0  0  0  0  0  0  0  0  0  0  0  0
   -6.8975   -1.0804  -18.8674 C   0  0  0  0  0  0  0  0  0  0  0  0
   -6.2159   -0.5841  -17.8028 N   0  0  0  0  0  0  0  0  0  0  0  0
   -5.1897    0.1883  -18.0658 C   0  0  0  0  0  0  0  0  0  0  0  0
   -4.7553    0.5111  -19.3780 C   0  0  0  0  0  0  0  0  0  0  0  0
   -3.6379    1.3492  -19.6105 C   0  0  0  0  0  0  0  0  0  0  0  0
   -3.2606    1.6670  -20.8869 C   0  0  0  0  0  0  0  0  0  0  0  0
   -3.9893    1.1576  -21.9862 C   0  0  0  0  0  0  0  0  0  0  0  0
   -5.0474    0.3059  -21.7897 C   0  0  0  0  0  0  0  0  0  0  0  0
   -5.4673   -0.0279  -20.4746 C   0  0  0  0  0  0  0  0  0  0  0  0
   -5.5631   -0.1220  -22.6446 H   0  0  0  0  0  0  0  0  0  0  0  0
   -3.6840    1.4232  -22.9956 H   0  0  0  0  0  0  0  0  0  0  0  0
   -2.3969    2.3008  -21.0701 H   0  0  0  0  0  0  0  0  0  0  0  0
   -3.1026    1.7461  -18.7518 H   0  0  0  0  0  0  0  0  0  0  0  0
   -4.6388    0.6052  -17.2194 H   0  0  0  0  0  0  0  0  0  0  0  0
   -7.7540   -1.7021  -18.6075 H   0  0  0  0  0  0  0  0  0  0  0  0
   -7.5431   -0.8111  -22.1108 H   0  0  0  0  0  0  0  0  0  0  0  0
   -8.3744   -1.7869  -20.8894 H   0  0  0  0  0  0  0  0  0  0  0  0
   -8.7976   -3.1481  -23.1927 C   0  0  0  0  0  0  0  0  0  0  0  0
   -9.1735   -4.0635  -24.3589 C   0  0  0  0  0  0  0  0  0  0  0  0
   -8.4161   -4.0011  -25.1441 H   0  0  0  0  0  0  0  0  0  0  0  0
  -10.1178   -3.7252  -24.8053 H   0  0  0  0  0  0  0  0  0  0  0  0
   -8.7617   -2.1027  -23.5115 H   0  0  0  0  0  0  0  0  0  0  0  0
   -9.6035   -3.2333  -22.4460 H   0  0  0  0  0  0  0  0  0  0  0  0
   -6.2057   -5.0750  -22.2337 H   0  0  0  0  0  0  0  0  0  0  0  0
   -6.4977   -4.8100  -23.9444 H   0  0  0  0  0  0  0  0  0  0  0  0
   -8.4525   -5.8618  -21.8588 H   0  0  0  0  0  0  0  0  0  0  0  0
   -7.7365   -6.8594  -23.1018 H   0  0  0  0  0  0  0  0  0  0  0  0
  -10.2033   -5.4339  -23.1825 H   0  0  0  0  0  0  0  0  0  0  0  0
   -9.6081   -7.5538  -24.2761 H   0  0  0  0  0  0  0  0  0  0  0  0
  -11.8059   -6.4429  -24.8531 H   0  0  0  0  0  0  0  0  0  0  0  0
  -10.9900   -5.5688  -26.1534 H   0  0  0  0  0  0  0  0  0  0  0  0
  -11.1234   -7.3233  -26.2220 H   0  0  0  0  0  0  0  0  0  0  0  0
  1  2  1  0
  2  3  1  0
  3  4  1  0
  3  5  1  0
  3  6  1  0
  2  7  1  0
  7  8  1  0
  8  9  1  0
  9 10  1  0
 10 11  1  0
 11 12  2  0
 11 13  1  0
 13 14  1  0
 14 15  2  0
 15 16  1  0
 16 17  2  0
 17 18  1  0
 18 19  2  0
 19 20  1  0
 20 21  2  0
 21 22  1  0
 22 23  2  0
 22 24  1  0
 21 25  1  0
 20 26  1  0
 19 27  1  0
 17 28  1  0
 15 29  1  0
 13 30  1  0
 13 31  1  0
 10 32  1  0
 32 33  1  0
 33 34  1  0
 33 35  1  0
 32 36  1  0
 32 37  1  0
  9 38  1  0
  9 39  1  0
  8 40  1  0
  8 41  1  0
  7 42  1  0
  2 43  1  0
  1 44  1  0
  1 45  1  0
  1 46  1  0
 33  7  1  0
 23 14  1  0
 23 18  1  0
M  END
>  <cnnaffinities>  (46) 
[4.84296, 4.84295, 4.84288]

>  <score>  (46) 
4.84296

>  <index>  (46) 
48

>  <Smiles>  (46) 
C(C(C([H])([H])[H])(C1(C(C(N(C(=O)C(c2c(nc(c3c(c(c(c(c23)[H])[H])[H])[H])[H])[H])([H])[H])C(C1([H])[H])([H])[H])([H])[H])([H])[H])[H])[H])([H])([H])[H]

>  <h>  (46) 
<NA>

>  <Training>  (46) 
True

>  <Success>  (46) 
True

>  <enamine_searched>  (46) 
False

>  <enamine_id>  (46) 
nan

$$$$

     RDKit          3D

 67 72  0  0  0  0  0  0  0  0999 V2000
   -7.4071    3.3674  -21.7789 C   0  0  0  0  0  0  0  0  0  0  0  0
   -8.2767    2.9075  -22.8470 N   0  0  0  0  0  0  0  0  0  0  0  0
   -7.7042    2.2289  -23.8654 C   0  0  0  0  0  0  0  0  0  0  0  0
   -6.4892    2.1286  -23.9801 O   0  0  0  0  0  0  0  0  0  0  0  0
   -8.6474    1.6007  -24.8966 C   0  0  0  0  0  0  0  0  0  0  0  0
   -9.3667    0.4427  -24.3998 N   0  0  0  0  0  0  0  0  0  0  0  0
   -8.6499   -0.8083  -24.2377 C   0  0  0  0  0  0  0  0  0  0  0  0
   -9.0419   -1.5293  -22.9219 C   0  0  2  0  0  0  0  0  0  0  0  0
   -8.5022   -0.7395  -21.6980 C   0  0  0  0  0  0  0  0  0  0  0  0
   -8.9555    0.2828  -21.2232 O   0  0  0  0  0  0  0  0  0  0  0  0
   -7.3919   -1.3918  -21.2090 N   0  0  0  0  0  0  0  0  0  0  0  0
   -6.6016   -0.8162  -20.1776 C   0  0  0  0  0  0  0  0  0  0  0  0
   -6.9094   -1.0482  -18.8620 C   0  0  0  0  0  0  0  0  0  0  0  0
   -6.2050   -0.5586  -17.8123 N   0  0  0  0  0  0  0  0  0  0  0  0
   -5.1701    0.2023  -18.0770 C   0  0  0  0  0  0  0  0  0  0  0  0
   -4.7343    0.5306  -19.3910 C   0  0  0  0  0  0  0  0  0  0  0  0
   -3.6110    1.3700  -19.6338 C   0  0  0  0  0  0  0  0  0  0  0  0
   -3.2358    1.6740  -20.9128 C   0  0  0  0  0  0  0  0  0  0  0  0
   -3.9717    1.1632  -22.0049 C   0  0  0  0  0  0  0  0  0  0  0  0
   -5.0516    0.3408  -21.7981 C   0  0  0  0  0  0  0  0  0  0  0  0
   -5.4709    0.0071  -20.4827 C   0  0  0  0  0  0  0  0  0  0  0  0
   -5.5967   -0.0550  -22.6501 H   0  0  0  0  0  0  0  0  0  0  0  0
   -3.6691    1.3984  -23.0202 H   0  0  0  0  0  0  0  0  0  0  0  0
   -2.3704    2.3058  -21.0988 H   0  0  0  0  0  0  0  0  0  0  0  0
   -3.0725    1.7708  -18.7784 H   0  0  0  0  0  0  0  0  0  0  0  0
   -4.6222    0.6086  -17.2259 H   0  0  0  0  0  0  0  0  0  0  0  0
   -7.7636   -1.6708  -18.6056 H   0  0  0  0  0  0  0  0  0  0  0  0
   -7.0411   -2.5976  -21.9302 C   0  0  0  0  0  0  0  0  0  0  0  0
   -8.2985   -2.8952  -22.7681 C   0  0  2  0  0  0  0  0  0  0  0  0
   -7.9616   -3.6793  -24.0546 C   0  0  0  0  0  0  0  0  0  0  0  0
   -7.4518   -5.0021  -23.7706 N   0  0  0  0  0  0  0  0  0  0  0  0
   -6.1213   -5.3067  -23.6620 C   0  0  0  0  0  0  0  0  0  0  0  0
   -5.0179   -4.5847  -24.0091 C   0  0  0  0  0  0  0  0  0  0  0  0
   -3.7927   -5.1844  -23.7870 N   0  0  0  0  0  0  0  0  0  0  0  0
   -3.9339   -6.3722  -23.2953 C   0  0  0  0  0  0  0  0  0  0  0  0
   -2.7944   -7.2974  -22.9863 C   0  0  0  0  0  0  0  0  0  0  0  0
   -3.0231   -7.9294  -22.1260 H   0  0  0  0  0  0  0  0  0  0  0  0
   -2.5867   -7.9496  -23.8440 H   0  0  0  0  0  0  0  0  0  0  0  0
   -1.8997   -6.7021  -22.7928 H   0  0  0  0  0  0  0  0  0  0  0  0
   -5.6009   -6.8615  -23.0352 S   0  0  0  0  0  0  0  0  0  0  0  0
   -5.0535   -3.5980  -24.4597 H   0  0  0  0  0  0  0  0  0  0  0  0
   -8.1085   -5.7253  -23.5205 H   0  0  0  0  0  0  0  0  0  0  0  0
   -8.8644   -3.7926  -24.6658 H   0  0  0  0  0  0  0  0  0  0  0  0
   -7.2158   -3.1298  -24.6484 H   0  0  0  0  0  0  0  0  0  0  0  0
   -8.9573   -3.5332  -22.1730 H   0  0  0  0  0  0  0  0  0  0  0  0
   -6.1568   -2.4462  -22.5716 H   0  0  0  0  0  0  0  0  0  0  0  0
   -6.7894   -3.4180  -21.2489 H   0  0  0  0  0  0  0  0  0  0  0  0
  -10.5605   -1.5791  -22.8519 C   0  0  0  0  0  0  0  0  0  0  0  0
  -11.2001   -2.4640  -21.9747 C   0  0  0  0  0  0  0  0  0  0  0  0
  -12.5799   -2.4826  -21.8924 C   0  0  0  0  0  0  0  0  0  0  0  0
  -13.3637   -3.5786  -20.7928 Cl  0  0  0  0  0  0  0  0  0  0  0  0
  -13.3677   -1.6220  -22.6561 C   0  0  0  0  0  0  0  0  0  0  0  0
  -12.7437   -0.6964  -23.4674 C   0  0  0  0  0  0  0  0  0  0  0  0
  -11.3518   -0.6474  -23.5414 C   0  0  0  0  0  0  0  0  0  0  0  0
  -10.7283    0.4983  -24.2850 C   0  0  0  0  0  0  0  0  0  0  0  0
  -11.3916    1.4301  -24.7145 O   0  0  0  0  0  0  0  0  0  0  0  0
  -13.3065    0.0340  -24.0396 H   0  0  0  0  0  0  0  0  0  0  0  0
  -14.4471   -1.6674  -22.5762 H   0  0  0  0  0  0  0  0  0  0  0  0
  -10.6323   -3.1195  -21.3247 H   0  0  0  0  0  0  0  0  0  0  0  0
   -7.5837   -0.5632  -24.2217 H   0  0  0  0  0  0  0  0  0  0  0  0
   -8.8548   -1.4772  -25.0900 H   0  0  0  0  0  0  0  0  0  0  0  0
   -9.4213    2.3000  -25.2249 H   0  0  0  0  0  0  0  0  0  0  0  0
   -8.0078    1.3321  -25.7444 H   0  0  0  0  0  0  0  0  0  0  0  0
   -9.2728    2.8224  -22.6940 H   0  0  0  0  0  0  0  0  0  0  0  0
   -6.7982    2.5274  -21.4117 H   0  0  0  0  0  0  0  0  0  0  0  0
   -6.7272    4.1462  -22.1421 H   0  0  0  0  0  0  0  0  0  0  0  0
   -8.0144    3.7868  -20.9796 H   0  0  0  0  0  0  0  0  0  0  0  0
  1  2  1  0
  2  3  1  0
  3  4  2  0
  3  5  1  0
  5  6  1  0
  6  7  1  0
  8  7  1  6
  8  9  1  0
  9 10  2  0
  9 11  1  0
 11 12  1  0
 12 13  2  0
 13 14  1  0
 14 15  2  0
 15 16  1  0
 16 17  2  0
 17 18  1  0
 18 19  2  0
 19 20  1  0
 20 21  2  0
 20 22  1  0
 19 23  1  0
 18 24  1  0
 17 25  1  0
 15 26  1  0
 13 27  1  0
 11 28  1  0
 28 29  1  0
 29 30  1  0
 30 31  1  0
 31 32  1  0
 32 33  2  0
 33 34  1  0
 34 35  2  0
 35 36  1  0
 36 37  1  0
 36 38  1  0
 36 39  1  0
 35 40  1  0
 33 41  1  0
 31 42  1  0
 30 43  1  0
 30 44  1  0
 29 45  1  1
 28 46  1  0
 28 47  1  0
  8 48  1  0
 48 49  2  0
 49 50  1  0
 50 51  1  0
 50 52  2  0
 52 53  1  0
 53 54  2  0
 54 55  1  0
 55 56  2  0
 53 57  1  0
 52 58  1  0
 49 59  1  0
  7 60  1  0
  7 61  1  0
  5 62  1  0
  5 63  1  0
  2 64  1  0
  1 65  1  0
  1 66  1  0
  1 67  1  0
 55  6  1  0
 29  8  1  0
 40 32  1  0
 54 48  1  0
 21 12  1  0
 21 16  1  0
M  END
>  <cnnaffinities>  (47) 
[6.76874]

>  <score>  (47) 
6.76874

>  <index>  (47) 
49

>  <Smiles>  (47) 
C(N(C(=O)C(N1C([C@@]2(C(=O)N(c3c(nc(c4c(c(c(c(c34)[H])[H])[H])[H])[H])[H])C([C@@]2(C(N(c2c(nc(C([H])([H])[H])s2)[H])[H])([H])[H])[H])([H])[H])c2c(c(Cl)c(c(c2C1=O)[H])[H])[H])([H])[H])([H])[H])[H])([H])([H])[H]

>  <h>  (47) 
<NA>

>  <Training>  (47) 
True

>  <Success>  (47) 
True

>  <enamine_searched>  (47) 
False

>  <enamine_id>  (47) 
nan

$$$$

     RDKit          3D

 66 70  0  0  0  0  0  0  0  0999 V2000
   -7.4419    3.3503  -21.8152 C   0  0  0  0  0  0  0  0  0  0  0  0
   -8.3561    2.8835  -22.8427 N   0  0  0  0  0  0  0  0  0  0  0  0
   -7.8404    2.1592  -23.8634 C   0  0  0  0  0  0  0  0  0  0  0  0
   -6.6318    2.0139  -24.0142 O   0  0  0  0  0  0  0  0  0  0  0  0
   -8.8449    1.5412  -24.8449 C   0  0  0  0  0  0  0  0  0  0  0  0
   -9.5395    0.3802  -24.3190 N   0  0  0  0  0  0  0  0  0  0  0  0
   -8.8097   -0.8657  -24.1771 C   0  0  0  0  0  0  0  0  0  0  0  0
   -9.1300   -1.5705  -22.8329 C   0  0  2  0  0  0  0  0  0  0  0  0
   -8.5437   -0.7507  -21.6502 C   0  0  0  0  0  0  0  0  0  0  0  0
   -8.9822    0.2766  -21.1776 O   0  0  0  0  0  0  0  0  0  0  0  0
   -7.4067   -1.3853  -21.2000 N   0  0  0  0  0  0  0  0  0  0  0  0
   -6.6090   -0.8096  -20.1731 C   0  0  0  0  0  0  0  0  0  0  0  0
   -6.9106   -1.0436  -18.8569 C   0  0  0  0  0  0  0  0  0  0  0  0
   -6.2011   -0.5567  -17.8089 N   0  0  0  0  0  0  0  0  0  0  0  0
   -5.1666    0.2032  -18.0769 C   0  0  0  0  0  0  0  0  0  0  0  0
   -4.7327    0.5299  -19.3911 C   0  0  0  0  0  0  0  0  0  0  0  0
   -3.6078    1.3665  -19.6364 C   0  0  0  0  0  0  0  0  0  0  0  0
   -3.2332    1.6694  -20.9154 C   0  0  0  0  0  0  0  0  0  0  0  0
   -3.9710    1.1563  -22.0067 C   0  0  0  0  0  0  0  0  0  0  0  0
   -5.0514    0.3341  -21.7966 C   0  0  0  0  0  0  0  0  0  0  0  0
   -5.4728    0.0061  -20.4824 C   0  0  0  0  0  0  0  0  0  0  0  0
   -5.5954   -0.0654  -22.6476 H   0  0  0  0  0  0  0  0  0  0  0  0
   -3.6648    1.3854  -23.0211 H   0  0  0  0  0  0  0  0  0  0  0  0
   -2.3667    2.2970  -21.1036 H   0  0  0  0  0  0  0  0  0  0  0  0
   -3.0686    1.7682  -18.7817 H   0  0  0  0  0  0  0  0  0  0  0  0
   -4.6197    0.6102  -17.2256 H   0  0  0  0  0  0  0  0  0  0  0  0
   -7.7615   -1.6679  -18.5960 H   0  0  0  0  0  0  0  0  0  0  0  0
   -7.0782   -2.6082  -21.9092 C   0  0  0  0  0  0  0  0  0  0  0  0
   -8.3687   -2.9288  -22.6967 C   0  0  2  0  0  0  0  0  0  0  0  0
   -8.0854   -3.6763  -23.9997 C   0  0  0  0  0  0  0  0  0  0  0  0
   -7.4684   -4.9181  -23.7049 O   0  0  0  0  0  0  0  0  0  0  0  0
   -7.3037   -5.7628  -24.8491 C   0  0  0  0  0  0  0  0  0  0  0  0
   -8.4385   -6.7868  -24.9212 C   0  0  0  0  0  0  0  0  0  0  0  0
   -8.4369   -7.4100  -24.0210 H   0  0  0  0  0  0  0  0  0  0  0  0
   -8.3149   -7.4383  -25.7954 H   0  0  0  0  0  0  0  0  0  0  0  0
   -9.4152   -6.2954  -25.0003 H   0  0  0  0  0  0  0  0  0  0  0  0
   -5.9403   -6.4429  -24.7573 C   0  0  0  0  0  0  0  0  0  0  0  0
   -5.8880   -7.0667  -23.8595 H   0  0  0  0  0  0  0  0  0  0  0  0
   -5.7720   -7.0810  -25.6337 H   0  0  0  0  0  0  0  0  0  0  0  0
   -5.1413   -5.6972  -24.7130 H   0  0  0  0  0  0  0  0  0  0  0  0
   -7.3296   -5.1337  -25.7571 H   0  0  0  0  0  0  0  0  0  0  0  0
   -9.0195   -3.8336  -24.5641 H   0  0  0  0  0  0  0  0  0  0  0  0
   -7.4140   -3.0831  -24.6447 H   0  0  0  0  0  0  0  0  0  0  0  0
   -8.9788   -3.5938  -22.0833 H   0  0  0  0  0  0  0  0  0  0  0  0
   -6.8039   -3.3994  -21.2030 H   0  0  0  0  0  0  0  0  0  0  0  0
   -6.2178   -2.4609  -22.5807 H   0  0  0  0  0  0  0  0  0  0  0  0
  -10.6431   -1.6311  -22.7009 C   0  0  0  0  0  0  0  0  0  0  0  0
  -11.2327   -2.5276  -21.8066 C   0  0  0  0  0  0  0  0  0  0  0  0
  -12.6033   -2.5420  -21.6544 C   0  0  0  0  0  0  0  0  0  0  0  0
  -13.1550   -3.3999  -20.7817 F   0  0  0  0  0  0  0  0  0  0  0  0
  -13.4418   -1.6844  -22.3573 C   0  0  0  0  0  0  0  0  0  0  0  0
  -12.8613   -0.7585  -23.2005 C   0  0  0  0  0  0  0  0  0  0  0  0
  -11.4743   -0.7044  -23.3506 C   0  0  0  0  0  0  0  0  0  0  0  0
  -10.8946    0.4341  -24.1354 C   0  0  0  0  0  0  0  0  0  0  0  0
  -11.5815    1.3596  -24.5422 O   0  0  0  0  0  0  0  0  0  0  0  0
  -13.4545   -0.0317  -23.7452 H   0  0  0  0  0  0  0  0  0  0  0  0
  -14.5133   -1.7419  -22.2074 H   0  0  0  0  0  0  0  0  0  0  0  0
  -10.6338   -3.1995  -21.2051 H   0  0  0  0  0  0  0  0  0  0  0  0
   -9.0503   -1.5499  -25.0077 H   0  0  0  0  0  0  0  0  0  0  0  0
   -7.7466   -0.6121  -24.2177 H   0  0  0  0  0  0  0  0  0  0  0  0
   -8.2535    1.2748  -25.7277 H   0  0  0  0  0  0  0  0  0  0  0  0
   -9.6327    2.2418  -25.1378 H   0  0  0  0  0  0  0  0  0  0  0  0
   -9.3521    2.8449  -22.6648 H   0  0  0  0  0  0  0  0  0  0  0  0
   -8.0183    3.8252  -21.0218 H   0  0  0  0  0  0  0  0  0  0  0  0
   -6.8499    2.5047  -21.4271 H   0  0  0  0  0  0  0  0  0  0  0  0
   -6.7448    4.0927  -22.2234 H   0  0  0  0  0  0  0  0  0  0  0  0
  1  2  1  0
  2  3  1  0
  3  4  2  0
  3  5  1  0
  5  6  1  0
  6  7  1  0
  8  7  1  6
  8  9  1  0
  9 10  2  0
  9 11  1  0
 11 12  1  0
 12 13  2  0
 13 14  1  0
 14 15  2  0
 15 16  1  0
 16 17  2  0
 17 18  1  0
 18 19  2  0
 19 20  1  0
 20 21  2  0
 20 22  1  0
 19 23  1  0
 18 24  1  0
 17 25  1  0
 15 26  1  0
 13 27  1  0
 11 28  1  0
 28 29  1  0
 29 30  1  0
 30 31  1  0
 31 32  1  0
 32 33  1  0
 33 34  1  0
 33 35  1  0
 33 36  1  0
 32 37  1  0
 37 38  1  0
 37 39  1  0
 37 40  1  0
 32 41  1  0
 30 42  1  0
 30 43  1  0
 29 44  1  1
 28 45  1  0
 28 46  1  0
  8 47  1  0
 47 48  2  0
 48 49  1  0
 49 50  1  0
 49 51  2  0
 51 52  1  0
 52 53  2  0
 53 54  1  0
 54 55  2  0
 52 56  1  0
 51 57  1  0
 48 58  1  0
  7 59  1  0
  7 60  1  0
  5 61  1  0
  5 62  1  0
  2 63  1  0
  1 64  1  0
  1 65  1  0
  1 66  1  0
 54  6  1  0
 29  8  1  0
 53 47  1  0
 21 12  1  0
 21 16  1  0
M  END
>  <cnnaffinities>  (48) 
[6.15842, 6.10629, 6.31577, 6.70663, 5.86976, 6.09817]

>  <score>  (48) 
6.15842

>  <index>  (48) 
50

>  <Smiles>  (48) 
C(N(C(=O)C(N1C([C@@]2(C(=O)N(c3c(nc(c4c(c(c(c(c34)[H])[H])[H])[H])[H])[H])C([C@@]2(C(OC(C([H])([H])[H])(C([H])([H])[H])[H])([H])[H])[H])([H])[H])c2c(c(F)c(c(c2C1=O)[H])[H])[H])([H])[H])([H])[H])[H])([H])([H])[H]

>  <h>  (48) 
<NA>

>  <Training>  (48) 
True

>  <Success>  (48) 
True

>  <enamine_searched>  (48) 
False

>  <enamine_id>  (48) 
nan

$$$$

     RDKit          3D

 50 52  0  0  0  0  0  0  0  0999 V2000
  -11.3761   -0.4229  -25.0874 C   0  0  0  0  0  0  0  0  0  0  0  0
  -10.7505   -0.0606  -23.9776 C   0  0  0  0  0  0  0  0  0  0  0  0
  -10.6928   -0.9737  -22.7660 C   0  0  0  0  0  0  0  0  0  0  0  0
   -9.3427   -1.4794  -22.5195 N   0  0  0  0  0  0  0  0  0  0  0  0
   -8.6433   -0.8649  -21.4913 C   0  0  0  0  0  0  0  0  0  0  0  0
   -9.1384    0.0165  -20.7901 O   0  0  0  0  0  0  0  0  0  0  0  0
   -7.3869   -1.3483  -21.2508 N   0  0  0  0  0  0  0  0  0  0  0  0
   -6.6055   -0.8186  -20.1979 C   0  0  0  0  0  0  0  0  0  0  0  0
   -6.9286   -1.0587  -18.8864 C   0  0  0  0  0  0  0  0  0  0  0  0
   -6.2273   -0.5781  -17.8342 N   0  0  0  0  0  0  0  0  0  0  0  0
   -5.1955    0.1918  -18.0930 C   0  0  0  0  0  0  0  0  0  0  0  0
   -4.7589    0.5278  -19.4051 C   0  0  0  0  0  0  0  0  0  0  0  0
   -3.6415    1.3730  -19.6410 C   0  0  0  0  0  0  0  0  0  0  0  0
   -3.2702    1.6868  -20.9212 C   0  0  0  0  0  0  0  0  0  0  0  0
   -4.0011    1.1851  -22.0197 C   0  0  0  0  0  0  0  0  0  0  0  0
   -5.0805    0.3562  -21.8185 C   0  0  0  0  0  0  0  0  0  0  0  0
   -5.4799    0.0014  -20.5013 C   0  0  0  0  0  0  0  0  0  0  0  0
   -5.6302   -0.0295  -22.6737 H   0  0  0  0  0  0  0  0  0  0  0  0
   -3.6838    1.4283  -23.0308 H   0  0  0  0  0  0  0  0  0  0  0  0
   -2.4069    2.3216  -21.1034 H   0  0  0  0  0  0  0  0  0  0  0  0
   -3.1002    1.7636  -18.7834 H   0  0  0  0  0  0  0  0  0  0  0  0
   -4.6434    0.5918  -17.2418 H   0  0  0  0  0  0  0  0  0  0  0  0
   -7.7923   -1.6739  -18.6433 H   0  0  0  0  0  0  0  0  0  0  0  0
   -6.9501   -1.9273  -21.9518 H   0  0  0  0  0  0  0  0  0  0  0  0
   -8.7489   -2.2235  -23.5924 C   0  0  0  0  0  0  0  0  0  0  0  0
   -9.1878   -3.5187  -23.8640 C   0  0  0  0  0  0  0  0  0  0  0  0
   -8.5885   -4.2517  -24.8834 C   0  0  0  0  0  0  0  0  0  0  0  0
   -7.5931   -3.6899  -25.6747 C   0  0  0  0  0  0  0  0  0  0  0  0
   -7.2154   -2.3773  -25.4332 C   0  0  0  0  0  0  0  0  0  0  0  0
   -5.9754   -1.6570  -26.4157 Cl  0  0  0  0  0  0  0  0  0  0  0  0
   -7.7871   -1.6307  -24.4107 C   0  0  0  0  0  0  0  0  0  0  0  0
   -7.4947   -0.5936  -24.2594 H   0  0  0  0  0  0  0  0  0  0  0  0
   -7.1110   -4.2548  -26.4659 H   0  0  0  0  0  0  0  0  0  0  0  0
   -8.9022   -5.2751  -25.0629 H   0  0  0  0  0  0  0  0  0  0  0  0
   -9.9867   -3.9512  -23.2622 H   0  0  0  0  0  0  0  0  0  0  0  0
  -11.3720   -1.8171  -22.9431 H   0  0  0  0  0  0  0  0  0  0  0  0
  -10.9963   -0.4876  -21.8449 H   0  0  0  0  0  0  0  0  0  0  0  0
   -9.8671    1.1614  -24.0998 C   0  0  0  0  0  0  0  0  0  0  0  0
   -9.5870    1.6210  -25.2027 O   0  0  0  0  0  0  0  0  0  0  0  0
   -9.3726    1.7317  -22.9794 N   0  0  0  0  0  0  0  0  0  0  0  0
   -8.1589    2.5153  -23.1096 C   0  0  0  0  0  0  0  0  0  0  0  0
   -7.5460    2.8041  -21.7586 C   0  0  0  0  0  0  0  0  0  0  0  0
   -7.5517    1.8821  -21.1725 H   0  0  0  0  0  0  0  0  0  0  0  0
   -6.5048    3.1310  -21.8427 H   0  0  0  0  0  0  0  0  0  0  0  0
   -8.0813    3.5711  -21.1991 H   0  0  0  0  0  0  0  0  0  0  0  0
   -7.4351    1.9304  -23.6903 H   0  0  0  0  0  0  0  0  0  0  0  0
   -8.3851    3.4044  -23.7043 H   0  0  0  0  0  0  0  0  0  0  0  0
   -9.6113    1.3882  -22.0565 H   0  0  0  0  0  0  0  0  0  0  0  0
  -11.1366    0.0961  -26.0108 H   0  0  0  0  0  0  0  0  0  0  0  0
  -12.1119   -1.2248  -25.1035 H   0  0  0  0  0  0  0  0  0  0  0  0
  1  2  2  0
  2  3  1  0
  3  4  1  0
  4  5  1  0
  5  6  2  0
  5  7  1  0
  7  8  1  0
  8  9  2  0
  9 10  1  0
 10 11  2  0
 11 12  1  0
 12 13  2  0
 13 14  1  0
 14 15  2  0
 15 16  1  0
 16 17  2  0
 16 18  1  0
 15 19  1  0
 14 20  1  0
 13 21  1  0
 11 22  1  0
  9 23  1  0
  7 24  1  0
  4 25  1  0
 25 26  2  0
 26 27  1  0
 27 28  2  0
 28 29  1  0
 29 30  1  0
 29 31  2  0
 31 32  1  0
 28 33  1  0
 27 34  1  0
 26 35  1  0
  3 36  1  0
  3 37  1  0
  2 38  1  0
 38 39  2  0
 38 40  1  0
 40 41  1  0
 41 42  1  0
 42 43  1  0
 42 44  1  0
 42 45  1  0
 41 46  1  0
 41 47  1  0
 40 48  1  0
  1 49  1  0
  1 50  1  0
 17  8  1  0
 31 25  1  0
 17 12  1  0
M  END
>  <cnnaffinities>  (49) 
[5.72516, 5.6832, 5.44758, 6.38626]

>  <score>  (49) 
5.72516

>  <index>  (49) 
51

>  <Smiles>  (49) 
C(=C(C(N(C(=O)N(c1c(nc(c2c(c(c(c(c12)[H])[H])[H])[H])[H])[H])[H])c1c(c(c(c(Cl)c1[H])[H])[H])[H])([H])[H])C(=O)N(C(C([H])([H])[H])([H])[H])[H])([H])[H]

>  <h>  (49) 
<NA>

>  <Training>  (49) 
True

>  <Success>  (49) 
True

>  <enamine_searched>  (49) 
False

>  <enamine_id>  (49) 
nan

$$$$

     RDKit          3D

 57 60  0  0  0  0  0  0  0  0999 V2000
   -2.4101   -6.6158  -28.2920 C   0  0  0  0  0  0  0  0  0  0  0  0
   -3.6429   -5.6931  -28.3066 C   0  0  0  0  0  0  0  0  0  0  0  0
   -4.1300   -5.3481  -26.8981 C   0  0  0  0  0  0  0  0  0  0  0  0
   -3.7253   -4.3569  -26.3078 O   0  0  0  0  0  0  0  0  0  0  0  0
   -5.0163   -6.2364  -26.3319 N   0  0  0  0  0  0  0  0  0  0  0  0
   -5.6618   -6.0216  -25.0874 C   0  0  0  0  0  0  0  0  0  0  0  0
   -5.9114   -7.1077  -24.2466 C   0  0  0  0  0  0  0  0  0  0  0  0
   -6.5569   -6.8995  -23.0353 C   0  0  0  0  0  0  0  0  0  0  0  0
   -6.9611   -5.6287  -22.6430 C   0  0  0  0  0  0  0  0  0  0  0  0
   -6.7291   -4.5429  -23.4880 C   0  0  0  0  0  0  0  0  0  0  0  0
   -7.1600   -3.2253  -23.1094 N   0  0  0  0  0  0  0  0  0  0  0  0
   -8.1484   -2.5612  -23.9488 C   0  0  0  0  0  0  0  0  0  0  0  0
   -9.5656   -2.6618  -23.4177 C   0  0  0  0  0  0  0  0  0  0  0  0
  -10.1600   -3.9130  -23.2977 C   0  0  0  0  0  0  0  0  0  0  0  0
  -11.4611   -4.0221  -22.8281 C   0  0  0  0  0  0  0  0  0  0  0  0
  -12.1810   -2.9047  -22.4195 C   0  0  0  0  0  0  0  0  0  0  0  0
  -11.6040   -1.6457  -22.5519 C   0  0  0  0  0  0  0  0  0  0  0  0
  -10.3113   -1.5348  -23.0650 C   0  0  0  0  0  0  0  0  0  0  0  0
   -9.8705   -0.5455  -23.1750 H   0  0  0  0  0  0  0  0  0  0  0  0
  -12.1623   -0.7543  -22.2676 H   0  0  0  0  0  0  0  0  0  0  0  0
  -13.1874   -3.0257  -22.0238 H   0  0  0  0  0  0  0  0  0  0  0  0
  -11.9246   -4.9941  -22.8366 H   0  0  0  0  0  0  0  0  0  0  0  0
   -9.6053   -4.8081  -23.5821 H   0  0  0  0  0  0  0  0  0  0  0  0
   -8.0786   -3.0574  -24.9240 H   0  0  0  0  0  0  0  0  0  0  0  0
   -7.8869   -1.5064  -24.0866 H   0  0  0  0  0  0  0  0  0  0  0  0
   -6.7016   -2.7239  -21.8970 C   0  0  0  0  0  0  0  0  0  0  0  0
   -5.7992   -3.2831  -21.3032 O   0  0  0  0  0  0  0  0  0  0  0  0
   -7.3898   -1.4733  -21.2931 C   0  0  0  0  0  0  0  0  0  0  0  0
   -6.5746   -0.8383  -20.1916 C   0  0  0  0  0  0  0  0  0  0  0  0
   -6.8750   -1.0542  -18.8730 C   0  0  0  0  0  0  0  0  0  0  0  0
   -6.1922   -0.5502  -17.8090 N   0  0  0  0  0  0  0  0  0  0  0  0
   -5.1605    0.2134  -18.0672 C   0  0  0  0  0  0  0  0  0  0  0  0
   -4.7245    0.5308  -19.3804 C   0  0  0  0  0  0  0  0  0  0  0  0
   -3.5990    1.3605  -19.6169 C   0  0  0  0  0  0  0  0  0  0  0  0
   -3.2126    1.6538  -20.8935 C   0  0  0  0  0  0  0  0  0  0  0  0
   -3.9410    1.1323  -21.9857 C   0  0  0  0  0  0  0  0  0  0  0  0
   -5.0174    0.3095  -21.7845 C   0  0  0  0  0  0  0  0  0  0  0  0
   -5.4485   -0.0079  -20.4725 C   0  0  0  0  0  0  0  0  0  0  0  0
   -5.5325   -0.1244  -22.6354 H   0  0  0  0  0  0  0  0  0  0  0  0
   -3.6089    1.3435  -22.9975 H   0  0  0  0  0  0  0  0  0  0  0  0
   -2.3386    2.2701  -21.0838 H   0  0  0  0  0  0  0  0  0  0  0  0
   -3.0657    1.7657  -18.7612 H   0  0  0  0  0  0  0  0  0  0  0  0
   -4.6135    0.6248  -17.2156 H   0  0  0  0  0  0  0  0  0  0  0  0
   -7.7256   -1.6753  -18.5906 H   0  0  0  0  0  0  0  0  0  0  0  0
   -7.6391   -0.7393  -22.0699 H   0  0  0  0  0  0  0  0  0  0  0  0
   -8.3551   -1.7971  -20.8741 H   0  0  0  0  0  0  0  0  0  0  0  0
   -6.0947   -4.7463  -24.7151 C   0  0  0  0  0  0  0  0  0  0  0  0
   -5.9313   -3.9112  -25.3901 H   0  0  0  0  0  0  0  0  0  0  0  0
   -7.4515   -5.4830  -21.6861 H   0  0  0  0  0  0  0  0  0  0  0  0
   -6.7263   -7.7482  -22.3810 H   0  0  0  0  0  0  0  0  0  0  0  0
   -5.5743   -8.1023  -24.5272 H   0  0  0  0  0  0  0  0  0  0  0  0
   -5.1457   -7.1378  -26.7748 H   0  0  0  0  0  0  0  0  0  0  0  0
   -4.4395   -6.1309  -28.9280 H   0  0  0  0  0  0  0  0  0  0  0  0
   -3.3758   -4.7311  -28.7530 H   0  0  0  0  0  0  0  0  0  0  0  0
   -2.0351   -6.7999  -29.3092 H   0  0  0  0  0  0  0  0  0  0  0  0
   -1.5955   -6.1585  -27.7186 H   0  0  0  0  0  0  0  0  0  0  0  0
   -2.6461   -7.5869  -27.8389 H   0  0  0  0  0  0  0  0  0  0  0  0
  1  2  1  0
  2  3  1  0
  3  4  2  0
  3  5  1  0
  5  6  1  0
  6  7  2  0
  7  8  1  0
  8  9  2  0
  9 10  1  0
 10 11  1  0
 11 12  1  0
 12 13  1  0
 13 14  2  0
 14 15  1  0
 15 16  2  0
 16 17  1  0
 17 18  2  0
 18 19  1  0
 17 20  1  0
 16 21  1  0
 15 22  1  0
 14 23  1  0
 12 24  1  0
 12 25  1  0
 11 26  1  0
 26 27  2  0
 26 28  1  0
 28 29  1  0
 29 30  2  0
 30 31  1  0
 31 32  2  0
 32 33  1  0
 33 34  2  0
 34 35  1  0
 35 36  2  0
 36 37  1  0
 37 38  2  0
 37 39  1  0
 36 40  1  0
 35 41  1  0
 34 42  1  0
 32 43  1  0
 30 44  1  0
 28 45  1  0
 28 46  1  0
 10 47  2  0
 47 48  1  0
  9 49  1  0
  8 50  1  0
  7 51  1  0
  5 52  1  0
  2 53  1  0
  2 54  1  0
  1 55  1  0
  1 56  1  0
  1 57  1  0
 47  6  1  0
 18 13  1  0
 38 29  1  0
 38 33  1  0
M  END
>  <cnnaffinities>  (50) 
[5.86939, 5.66705, 5.66059, 5.68944, 5.66006, 5.67931, 5.59846, 5.59978, 5.6863]

>  <score>  (50) 
5.86939

>  <index>  (50) 
52

>  <Smiles>  (50) 
C(C(C(=O)N(c1c(c(c(c(N(C(c2c(c(c(c(c2[H])[H])[H])[H])[H])([H])[H])C(=O)C(c2c(nc(c3c(c(c(c(c23)[H])[H])[H])[H])[H])[H])([H])[H])c1[H])[H])[H])[H])[H])([H])[H])([H])([H])[H]

>  <h>  (50) 
<NA>

>  <Training>  (50) 
True

>  <Success>  (50) 
True

>  <enamine_searched>  (50) 
False

>  <enamine_id>  (50) 
nan

$$$$

     RDKit          3D

 59 63  0  0  0  0  0  0  0  0999 V2000
   -8.4931   -6.5828  -26.2475 C   0  0  0  0  0  0  0  0  0  0  0  0
   -8.2758   -5.8738  -27.5754 C   0  0  0  0  0  0  0  0  0  0  0  0
   -8.4184   -4.4350  -27.4669 N   0  0  0  0  0  0  0  0  0  0  0  0
   -7.4459   -3.6940  -26.8874 C   0  0  0  0  0  0  0  0  0  0  0  0
   -6.4472   -4.1809  -26.3667 O   0  0  0  0  0  0  0  0  0  0  0  0
   -7.7060   -2.1910  -26.8679 C   0  0  0  0  0  0  0  0  0  0  0  0
   -8.5400   -1.8624  -25.7224 N   0  0  0  0  0  0  0  0  0  0  0  0
   -7.9377   -1.3200  -24.5052 C   0  0  0  0  0  0  0  0  0  0  0  0
   -8.7693   -1.5872  -23.2118 C   0  0  2  0  0  0  0  0  0  0  0  0
   -8.2011   -0.6367  -22.1383 C   0  0  0  0  0  0  0  0  0  0  0  0
   -8.3352    0.5711  -22.0962 O   0  0  0  0  0  0  0  0  0  0  0  0
   -7.4521   -1.3673  -21.2371 N   0  0  0  0  0  0  0  0  0  0  0  0
   -6.6561   -0.7889  -20.2184 C   0  0  0  0  0  0  0  0  0  0  0  0
   -6.9291   -1.0845  -18.9061 C   0  0  0  0  0  0  0  0  0  0  0  0
   -6.2417   -0.6065  -17.8427 N   0  0  0  0  0  0  0  0  0  0  0  0
   -5.2222    0.1788  -18.0957 C   0  0  0  0  0  0  0  0  0  0  0  0
   -4.8007    0.5322  -19.4073 C   0  0  0  0  0  0  0  0  0  0  0  0
   -3.6704    1.3661  -19.6097 C   0  0  0  0  0  0  0  0  0  0  0  0
   -3.2718    1.6906  -20.8758 C   0  0  0  0  0  0  0  0  0  0  0  0
   -3.9844    1.1977  -21.9903 C   0  0  0  0  0  0  0  0  0  0  0  0
   -5.0615    0.3669  -21.8223 C   0  0  0  0  0  0  0  0  0  0  0  0
   -5.5215    0.0349  -20.5148 C   0  0  0  0  0  0  0  0  0  0  0  0
   -5.5686   -0.0351  -22.6937 H   0  0  0  0  0  0  0  0  0  0  0  0
   -3.6503    1.4566  -22.9912 H   0  0  0  0  0  0  0  0  0  0  0  0
   -2.4018    2.3211  -21.0329 H   0  0  0  0  0  0  0  0  0  0  0  0
   -3.1348    1.7314  -18.7382 H   0  0  0  0  0  0  0  0  0  0  0  0
   -4.6659    0.5687  -17.2437 H   0  0  0  0  0  0  0  0  0  0  0  0
   -7.7701   -1.7359  -18.6724 H   0  0  0  0  0  0  0  0  0  0  0  0
   -7.3780   -2.7809  -21.5451 C   0  0  0  0  0  0  0  0  0  0  0  0
   -8.5330   -2.9852  -22.5313 C   0  0  2  0  0  0  0  0  0  0  0  0
   -8.3116   -4.1520  -23.4750 C   0  0  0  0  0  0  0  0  0  0  0  0
   -9.1290   -4.2202  -24.2002 H   0  0  0  0  0  0  0  0  0  0  0  0
   -7.3761   -4.0290  -24.0308 H   0  0  0  0  0  0  0  0  0  0  0  0
   -8.2651   -5.0975  -22.9251 H   0  0  0  0  0  0  0  0  0  0  0  0
   -9.4353   -3.1735  -21.9330 H   0  0  0  0  0  0  0  0  0  0  0  0
   -6.4024   -3.0438  -21.9850 H   0  0  0  0  0  0  0  0  0  0  0  0
   -7.4863   -3.3737  -20.6323 H   0  0  0  0  0  0  0  0  0  0  0  0
  -10.2409   -1.3363  -23.5273 C   0  0  0  0  0  0  0  0  0  0  0  0
  -11.1637   -1.0867  -22.5058 C   0  0  0  0  0  0  0  0  0  0  0  0
  -12.5134   -0.9603  -22.8020 C   0  0  0  0  0  0  0  0  0  0  0  0
  -13.6954   -0.8268  -21.5477 Cl  0  0  0  0  0  0  0  0  0  0  0  0
  -12.9818   -1.0056  -24.1105 C   0  0  0  0  0  0  0  0  0  0  0  0
  -12.0904   -1.2789  -25.1202 C   0  0  0  0  0  0  0  0  0  0  0  0
  -10.7438   -1.4721  -24.8237 C   0  0  0  0  0  0  0  0  0  0  0  0
   -9.8770   -1.9017  -25.9410 C   0  0  0  0  0  0  0  0  0  0  0  0
  -10.3537   -2.2902  -27.0114 O   0  0  0  0  0  0  0  0  0  0  0  0
  -12.4022   -1.3766  -26.1563 H   0  0  0  0  0  0  0  0  0  0  0  0
  -14.0343   -0.8539  -24.3172 H   0  0  0  0  0  0  0  0  0  0  0  0
  -10.8166   -0.9942  -21.4873 H   0  0  0  0  0  0  0  0  0  0  0  0
   -7.8390   -0.2304  -24.6160 H   0  0  0  0  0  0  0  0  0  0  0  0
   -6.9271   -1.7437  -24.4041 H   0  0  0  0  0  0  0  0  0  0  0  0
   -8.2476   -1.8971  -27.7713 H   0  0  0  0  0  0  0  0  0  0  0  0
   -6.7752   -1.6240  -26.8103 H   0  0  0  0  0  0  0  0  0  0  0  0
   -9.3126   -3.9978  -27.6486 H   0  0  0  0  0  0  0  0  0  0  0  0
   -8.9827   -6.2276  -28.3310 H   0  0  0  0  0  0  0  0  0  0  0  0
   -7.2644   -6.0726  -27.9427 H   0  0  0  0  0  0  0  0  0  0  0  0
   -7.7372   -6.2458  -25.5334 H   0  0  0  0  0  0  0  0  0  0  0  0
   -9.4853   -6.3643  -25.8365 H   0  0  0  0  0  0  0  0  0  0  0  0
   -8.4004   -7.6649  -26.3738 H   0  0  0  0  0  0  0  0  0  0  0  0
  1  2  1  0
  2  3  1  0
  3  4  1  0
  4  5  2  0
  4  6  1  0
  6  7  1  0
  7  8  1  0
  9  8  1  6
  9 10  1  0
 10 11  2  0
 10 12  1  0
 12 13  1  0
 13 14  2  0
 14 15  1  0
 15 16  2  0
 16 17  1  0
 17 18  2  0
 18 19  1  0
 19 20  2  0
 20 21  1  0
 21 22  2  0
 21 23  1  0
 20 24  1  0
 19 25  1  0
 18 26  1  0
 16 27  1  0
 14 28  1  0
 12 29  1  0
 29 30  1  0
 30 31  1  0
 31 32  1  0
 31 33  1  0
 31 34  1  0
 30 35  1  1
 29 36  1  0
 29 37  1  0
  9 38  1  0
 38 39  2  0
 39 40  1  0
 40 41  1  0
 40 42  2  0
 42 43  1  0
 43 44  2  0
 44 45  1  0
 45 46  2  0
 43 47  1  0
 42 48  1  0
 39 49  1  0
  8 50  1  0
  8 51  1  0
  6 52  1  0
  6 53  1  0
  3 54  1  0
  2 55  1  0
  2 56  1  0
  1 57  1  0
  1 58  1  0
  1 59  1  0
 45  7  1  0
 30  9  1  0
 44 38  1  0
 22 13  1  0
 22 17  1  0
M  END
>  <cnnaffinities>  (51) 
[6.10369, 6.27623]

>  <score>  (51) 
6.10369

>  <index>  (51) 
53

>  <Smiles>  (51) 
C(C(N(C(=O)C(N1C([C@@]2(C(=O)N(c3c(nc(c4c(c(c(c(c34)[H])[H])[H])[H])[H])[H])C([C@@]2(C([H])([H])[H])[H])([H])[H])c2c(c(Cl)c(c(c2C1=O)[H])[H])[H])([H])[H])([H])[H])[H])([H])[H])([H])([H])[H]

>  <h>  (51) 
<NA>

>  <Training>  (51) 
True

>  <Success>  (51) 
True

>  <enamine_searched>  (51) 
False

>  <enamine_id>  (51) 
nan

$$$$

     RDKit          3D

 40 43  0  0  0  0  0  0  0  0999 V2000
   -7.9690   -3.5413  -24.0102 C   0  0  0  0  0  0  0  0  0  0  0  0
   -8.0184   -2.6962  -22.8343 N   0  0  0  0  0  0  0  0  0  0  0  0
   -9.0745   -2.1079  -22.1897 C   0  0  0  0  0  0  0  0  0  0  0  0
  -10.4767   -2.1582  -22.7021 C   0  0  0  0  0  0  0  0  0  0  0  0
  -10.5913   -1.3124  -23.9601 C   0  0  0  0  0  0  0  0  0  0  0  0
  -10.5836   -1.8980  -25.2239 C   0  0  0  0  0  0  0  0  0  0  0  0
  -10.3366   -1.1385  -26.3642 C   0  0  0  0  0  0  0  0  0  0  0  0
  -10.1518    0.2343  -26.2397 C   0  0  0  0  0  0  0  0  0  0  0  0
  -10.2861    0.8516  -25.0001 C   0  0  0  0  0  0  0  0  0  0  0  0
  -10.5210    0.0824  -23.8638 C   0  0  0  0  0  0  0  0  0  0  0  0
  -10.6089    0.5790  -22.8999 H   0  0  0  0  0  0  0  0  0  0  0  0
  -10.1843    1.9330  -24.9364 H   0  0  0  0  0  0  0  0  0  0  0  0
   -9.8752    0.8238  -27.1034 H   0  0  0  0  0  0  0  0  0  0  0  0
  -10.2979   -1.6289  -27.3330 H   0  0  0  0  0  0  0  0  0  0  0  0
  -10.7086   -2.9719  -25.3265 H   0  0  0  0  0  0  0  0  0  0  0  0
  -11.1213   -1.7807  -21.9076 H   0  0  0  0  0  0  0  0  0  0  0  0
  -10.7641   -3.1991  -22.8881 H   0  0  0  0  0  0  0  0  0  0  0  0
   -8.6971   -1.4030  -21.1708 N   0  0  0  0  0  0  0  0  0  0  0  0
   -7.3330   -1.4866  -21.1713 N   0  0  0  0  0  0  0  0  0  0  0  0
   -6.5670   -0.8376  -20.1821 C   0  0  0  0  0  0  0  0  0  0  0  0
   -6.9180   -1.0474  -18.8760 C   0  0  0  0  0  0  0  0  0  0  0  0
   -6.2295   -0.5628  -17.8226 N   0  0  0  0  0  0  0  0  0  0  0  0
   -5.1872    0.1922  -18.0803 C   0  0  0  0  0  0  0  0  0  0  0  0
   -4.7496    0.5252  -19.3900 C   0  0  0  0  0  0  0  0  0  0  0  0
   -3.6321    1.3709  -19.6068 C   0  0  0  0  0  0  0  0  0  0  0  0
   -3.2637    1.7133  -20.8744 C   0  0  0  0  0  0  0  0  0  0  0  0
   -3.9976    1.2371  -21.9821 C   0  0  0  0  0  0  0  0  0  0  0  0
   -5.0682    0.4012  -21.8076 C   0  0  0  0  0  0  0  0  0  0  0  0
   -5.4611    0.0128  -20.4949 C   0  0  0  0  0  0  0  0  0  0  0  0
   -5.6174    0.0398  -22.6715 H   0  0  0  0  0  0  0  0  0  0  0  0
   -3.6879    1.5214  -22.9822 H   0  0  0  0  0  0  0  0  0  0  0  0
   -2.4035    2.3536  -21.0417 H   0  0  0  0  0  0  0  0  0  0  0  0
   -3.0968    1.7490  -18.7426 H   0  0  0  0  0  0  0  0  0  0  0  0
   -4.6349    0.5863  -17.2270 H   0  0  0  0  0  0  0  0  0  0  0  0
   -7.7897   -1.6586  -18.6518 H   0  0  0  0  0  0  0  0  0  0  0  0
   -6.8692   -2.3724  -22.1244 C   0  0  0  0  0  0  0  0  0  0  0  0
   -5.7412   -2.7819  -22.2970 O   0  0  0  0  0  0  0  0  0  0  0  0
   -8.8051   -4.2467  -24.0041 H   0  0  0  0  0  0  0  0  0  0  0  0
   -7.9744   -2.9509  -24.9360 H   0  0  0  0  0  0  0  0  0  0  0  0
   -7.0318   -4.0972  -23.9551 H   0  0  0  0  0  0  0  0  0  0  0  0
  1  2  1  0
  2  3  1  0
  3  4  1  0
  4  5  1  0
  5  6  2  0
  6  7  1  0
  7  8  2  0
  8  9  1  0
  9 10  2  0
 10 11  1  0
  9 12  1  0
  8 13  1  0
  7 14  1  0
  6 15  1  0
  4 16  1  0
  4 17  1  0
  3 18  2  0
 18 19  1  0
 19 20  1  0
 20 21  2  0
 21 22  1  0
 22 23  2  0
 23 24  1  0
 24 25  2  0
 25 26  1  0
 26 27  2  0
 27 28  1  0
 28 29  2  0
 28 30  1  0
 27 31  1  0
 26 32  1  0
 25 33  1  0
 23 34  1  0
 21 35  1  0
 19 36  1  0
 36 37  2  0
  1 38  1  0
  1 39  1  0
  1 40  1  0
 36  2  1  0
 10  5  1  0
 29 20  1  0
 29 24  1  0
M  END
>  <cnnaffinities>  (52) 
[4.8077, 4.84549]

>  <score>  (52) 
4.8077

>  <index>  (52) 
54

>  <Smiles>  (52) 
C(n1c(C(c2c(c(c(c(c2[H])[H])[H])[H])[H])([H])[H])nn(c2c(nc(c3c(c(c(c(c23)[H])[H])[H])[H])[H])[H])c1=O)([H])([H])[H]

>  <h>  (52) 
<NA>

>  <Training>  (52) 
True

>  <Success>  (52) 
True

>  <enamine_searched>  (52) 
False

>  <enamine_id>  (52) 
nan

$$$$

     RDKit          3D

 61 66  0  0  0  0  0  0  0  0999 V2000
   -7.0089   -5.4607  -25.0453 C   0  0  0  0  0  0  0  0  0  0  0  0
   -7.3350   -4.7944  -23.8505 O   0  0  0  0  0  0  0  0  0  0  0  0
   -7.9910   -3.5726  -24.0839 C   0  0  0  0  0  0  0  0  0  0  0  0
   -8.2969   -2.9159  -22.7401 C   0  0  1  0  0  0  0  0  0  0  0  0
   -7.0158   -2.5529  -21.9637 C   0  0  0  0  0  0  0  0  0  0  0  0
   -7.3978   -1.3753  -21.2086 N   0  0  0  0  0  0  0  0  0  0  0  0
   -6.6115   -0.8073  -20.1788 C   0  0  0  0  0  0  0  0  0  0  0  0
   -6.9223   -1.0521  -18.8666 C   0  0  0  0  0  0  0  0  0  0  0  0
   -6.2173   -0.5707  -17.8146 N   0  0  0  0  0  0  0  0  0  0  0  0
   -5.1904    0.2022  -18.0797 C   0  0  0  0  0  0  0  0  0  0  0  0
   -4.7662    0.5443  -19.3950 C   0  0  0  0  0  0  0  0  0  0  0  0
   -3.6469    1.3859  -19.6308 C   0  0  0  0  0  0  0  0  0  0  0  0
   -3.2734    1.6998  -20.9085 C   0  0  0  0  0  0  0  0  0  0  0  0
   -3.9901    1.1808  -22.0068 C   0  0  0  0  0  0  0  0  0  0  0  0
   -5.0498    0.3277  -21.8051 C   0  0  0  0  0  0  0  0  0  0  0  0
   -5.4816    0.0085  -20.4888 C   0  0  0  0  0  0  0  0  0  0  0  0
   -5.5982   -0.0534  -22.6606 H   0  0  0  0  0  0  0  0  0  0  0  0
   -3.6798    1.4496  -23.0150 H   0  0  0  0  0  0  0  0  0  0  0  0
   -2.4124    2.3364  -21.0892 H   0  0  0  0  0  0  0  0  0  0  0  0
   -3.0988    1.7665  -18.7754 H   0  0  0  0  0  0  0  0  0  0  0  0
   -4.6237    0.5944  -17.2333 H   0  0  0  0  0  0  0  0  0  0  0  0
   -7.7835   -1.6710  -18.6228 H   0  0  0  0  0  0  0  0  0  0  0  0
   -8.5996   -0.8192  -21.5770 C   0  0  0  0  0  0  0  0  0  0  0  0
   -9.1181    0.1349  -21.0311 O   0  0  0  0  0  0  0  0  0  0  0  0
   -9.1394   -1.6094  -22.7906 C   0  0  1  0  0  0  0  0  0  0  0  0
   -8.8628   -0.8298  -24.0976 C   0  0  0  0  0  0  0  0  0  0  0  0
   -9.6718    0.3641  -24.2066 N   0  0  0  0  0  0  0  0  0  0  0  0
   -9.0400    1.5898  -24.6586 C   0  0  0  0  0  0  0  0  0  0  0  0
   -8.2257    2.2711  -23.5931 C   0  0  0  0  0  0  0  0  0  0  0  0
   -6.8862    2.3760  -23.4259 C   0  0  0  0  0  0  0  0  0  0  0  0
   -6.6644    3.1183  -22.2907 N   0  0  0  0  0  4  0  0  0  0  0  0
   -7.8328    3.4814  -21.7614 C   0  0  0  0  0  0  0  0  0  0  0  0
   -8.8029    2.9707  -22.5411 N   0  0  0  0  0  0  0  0  0  0  0  0
   -9.7761    2.9271  -22.2575 H   0  0  0  0  0  0  0  0  0  0  0  0
   -7.9655    4.1330  -20.9055 H   0  0  0  0  0  0  0  0  0  0  0  0
   -5.7510    3.1662  -21.8587 H   0  0  0  0  0  0  0  0  0  0  0  0
   -6.0446    1.9792  -23.9797 H   0  0  0  0  0  0  0  0  0  0  0  0
   -9.8518    2.2303  -25.0207 H   0  0  0  0  0  0  0  0  0  0  0  0
   -8.4040    1.3466  -25.5162 H   0  0  0  0  0  0  0  0  0  0  0  0
  -11.0150    0.3438  -23.9869 C   0  0  0  0  0  0  0  0  0  0  0  0
  -11.7547    1.2631  -24.3151 O   0  0  0  0  0  0  0  0  0  0  0  0
  -11.5200   -0.8717  -23.2805 C   0  0  0  0  0  0  0  0  0  0  0  0
  -12.9003   -0.9993  -23.1561 C   0  0  0  0  0  0  0  0  0  0  0  0
  -13.4367   -1.9546  -22.3226 C   0  0  0  0  0  0  0  0  0  0  0  0
  -12.5558   -2.7632  -21.6060 C   0  0  0  0  0  0  0  0  0  0  0  0
  -13.2209   -3.7931  -20.3821 Cl  0  0  0  0  0  0  0  0  0  0  0  0
  -11.1859   -2.7198  -21.7989 C   0  0  0  0  0  0  0  0  0  0  0  0
  -10.6395   -1.7741  -22.6690 C   0  0  0  0  0  0  0  0  0  0  0  0
  -10.5492   -3.4100  -21.2562 H   0  0  0  0  0  0  0  0  0  0  0  0
  -14.5079   -2.0621  -22.1841 H   0  0  0  0  0  0  0  0  0  0  0  0
  -13.5219   -0.2942  -23.6939 H   0  0  0  0  0  0  0  0  0  0  0  0
   -9.0721   -1.4919  -24.9467 H   0  0  0  0  0  0  0  0  0  0  0  0
   -7.8125   -0.5291  -24.1442 H   0  0  0  0  0  0  0  0  0  0  0  0
   -6.1752   -2.3431  -22.6411 H   0  0  0  0  0  0  0  0  0  0  0  0
   -6.7009   -3.3534  -21.2895 H   0  0  0  0  0  0  0  0  0  0  0  0
   -8.8471   -3.6530  -22.1541 H   0  0  0  0  0  0  0  0  0  0  0  0
   -8.9218   -3.7403  -24.6539 H   0  0  0  0  0  0  0  0  0  0  0  0
   -7.3487   -2.9090  -24.6911 H   0  0  0  0  0  0  0  0  0  0  0  0
   -6.5438   -6.4117  -24.7758 H   0  0  0  0  0  0  0  0  0  0  0  0
   -7.9001   -5.6696  -25.6600 H   0  0  0  0  0  0  0  0  0  0  0  0
   -6.2968   -4.8840  -25.6580 H   0  0  0  0  0  0  0  0  0  0  0  0
  1  2  1  0
  2  3  1  0
  3  4  1  0
  4  5  1  0
  5  6  1  0
  6  7  1  0
  7  8  2  0
  8  9  1  0
  9 10  2  0
 10 11  1  0
 11 12  2  0
 12 13  1  0
 13 14  2  0
 14 15  1  0
 15 16  2  0
 15 17  1  0
 14 18  1  0
 13 19  1  0
 12 20  1  0
 10 21  1  0
  8 22  1  0
  6 23  1  0
 23 24  2  0
 23 25  1  0
 25 26  1  6
 26 27  1  0
 27 28  1  0
 28 29  1  0
 29 30  2  0
 30 31  1  0
 31 32  2  0
 32 33  1  0
 33 34  1  0
 32 35  1  0
 31 36  1  0
 30 37  1  0
 28 38  1  0
 28 39  1  0
 27 40  1  0
 40 41  2  0
 40 42  1  0
 42 43  2  0
 43 44  1  0
 44 45  2  0
 45 46  1  0
 45 47  1  0
 47 48  2  0
 47 49  1  0
 44 50  1  0
 43 51  1  0
 26 52  1  0
 26 53  1  0
  5 54  1  0
  5 55  1  0
  4 56  1  1
  3 57  1  0
  3 58  1  0
  1 59  1  0
  1 60  1  0
  1 61  1  0
 25  4  1  0
 33 29  1  0
 48 42  1  0
 16  7  1  0
 48 25  1  0
 16 11  1  0
M  CHG  1  31   1
M  END
>  <cnnaffinities>  (53) 
[6.40896, 6.5632]

>  <score>  (53) 
6.40896

>  <index>  (53) 
55

>  <Smiles>  (53) 
C(OC([C@]1(C(N(c2c(nc(c3c(c(c(c(c23)[H])[H])[H])[H])[H])[H])C(=O)[C@]21C(N(C(c1c([n+](c(n1[H])[H])[H])[H])([H])[H])C(=O)c1c(c(c(Cl)c(c21)[H])[H])[H])([H])[H])([H])[H])[H])([H])[H])([H])([H])[H]

>  <h>  (53) 
<NA>

>  <Training>  (53) 
True

>  <Success>  (53) 
True

>  <enamine_searched>  (53) 
False

>  <enamine_id>  (53) 
nan

$$$$

     RDKit          3D

 57 62  0  0  0  0  0  0  0  0999 V2000
  -10.3362   -0.9034  -23.4168 C   0  0  0  0  0  0  0  0  0  0  0  0
   -8.9459   -1.3572  -23.0053 C   0  0  1  0  0  0  0  0  0  0  0  0
   -8.3630   -0.4683  -21.8944 C   0  0  0  0  0  0  0  0  0  0  0  0
   -7.4063   -1.3446  -21.2471 N   0  0  0  0  0  0  0  0  0  0  0  0
   -6.5976   -0.8824  -20.1845 C   0  0  0  0  0  0  0  0  0  0  0  0
   -6.8918   -1.1848  -18.8802 C   0  0  0  0  0  0  0  0  0  0  0  0
   -6.2313   -0.6596  -17.8171 N   0  0  0  0  0  0  0  0  0  0  0  0
   -5.2396    0.1644  -18.0605 C   0  0  0  0  0  0  0  0  0  0  0  0
   -4.8064    0.5335  -19.3668 C   0  0  0  0  0  0  0  0  0  0  0  0
   -3.7029    1.3997  -19.5959 C   0  0  0  0  0  0  0  0  0  0  0  0
   -3.3499    1.7427  -20.8726 C   0  0  0  0  0  0  0  0  0  0  0  0
   -4.0728    1.2361  -21.9761 C   0  0  0  0  0  0  0  0  0  0  0  0
   -5.1248    0.3774  -21.7799 C   0  0  0  0  0  0  0  0  0  0  0  0
   -5.5172    0.0105  -20.4668 C   0  0  0  0  0  0  0  0  0  0  0  0
   -5.6576   -0.0442  -22.6247 H   0  0  0  0  0  0  0  0  0  0  0  0
   -3.7781    1.5057  -22.9857 H   0  0  0  0  0  0  0  0  0  0  0  0
   -2.5054    2.4020  -21.0517 H   0  0  0  0  0  0  0  0  0  0  0  0
   -3.1507    1.7793  -18.7402 H   0  0  0  0  0  0  0  0  0  0  0  0
   -4.7203    0.5780  -17.1963 H   0  0  0  0  0  0  0  0  0  0  0  0
   -7.7059   -1.8684  -18.6451 H   0  0  0  0  0  0  0  0  0  0  0  0
   -7.6719   -2.6837  -21.4486 C   0  0  0  0  0  0  0  0  0  0  0  0
   -7.0577   -3.5815  -20.9117 O   0  0  0  0  0  0  0  0  0  0  0  0
   -8.8351   -2.8271  -22.4523 C   0  0  1  0  0  0  0  0  0  0  0  0
  -10.0795   -3.2604  -21.6302 C   0  0  0  0  0  0  0  0  0  0  0  0
  -11.1527   -3.8473  -22.4271 N   0  0  0  0  0  0  0  0  0  0  0  0
  -12.5412   -3.7975  -21.9710 C   0  0  0  0  0  0  0  0  0  0  0  0
  -13.3361   -2.6896  -22.5762 C   0  0  0  0  0  0  0  0  0  0  0  0
  -13.2048   -1.5087  -21.9770 N   0  0  0  0  0  0  0  0  0  0  0  0
  -13.8581   -0.5154  -22.5743 C   0  0  0  0  0  0  0  0  0  0  0  0
  -14.6226   -0.6951  -23.7011 C   0  0  0  0  0  0  0  0  0  0  0  0
  -14.7160   -1.9727  -24.2251 C   0  0  0  0  0  0  0  0  0  0  0  0
  -14.0624   -2.9874  -23.6627 N   0  0  0  0  0  0  0  0  0  0  0  0
  -15.3495   -2.2047  -25.0827 H   0  0  0  0  0  0  0  0  0  0  0  0
  -15.0244    0.1896  -24.1533 H   0  0  0  0  0  0  0  0  0  0  0  0
  -13.7768    0.4748  -22.1355 H   0  0  0  0  0  0  0  0  0  0  0  0
  -12.5611   -3.6947  -20.8894 H   0  0  0  0  0  0  0  0  0  0  0  0
  -13.0282   -4.7080  -22.3059 H   0  0  0  0  0  0  0  0  0  0  0  0
  -10.9298   -4.6292  -23.5244 C   0  0  0  0  0  0  0  0  0  0  0  0
  -11.8460   -5.1982  -24.1014 O   0  0  0  0  0  0  0  0  0  0  0  0
   -9.5225   -4.7361  -23.9884 C   0  0  0  0  0  0  0  0  0  0  0  0
   -9.2476   -5.7206  -24.9363 C   0  0  0  0  0  0  0  0  0  0  0  0
   -7.9677   -5.9028  -25.4213 C   0  0  0  0  0  0  0  0  0  0  0  0
   -6.9755   -5.0530  -24.9458 C   0  0  0  0  0  0  0  0  0  0  0  0
   -5.7210   -5.2098  -25.4021 F   0  0  0  0  0  0  0  0  0  0  0  0
   -7.2222   -4.0710  -24.0014 C   0  0  0  0  0  0  0  0  0  0  0  0
   -8.5212   -3.8920  -23.4971 C   0  0  0  0  0  0  0  0  0  0  0  0
   -6.3809   -3.5007  -23.6224 H   0  0  0  0  0  0  0  0  0  0  0  0
   -7.7222   -6.6987  -26.1178 H   0  0  0  0  0  0  0  0  0  0  0  0
  -10.0645   -6.3499  -25.2748 H   0  0  0  0  0  0  0  0  0  0  0  0
   -9.7313   -3.9732  -20.8770 H   0  0  0  0  0  0  0  0  0  0  0  0
  -10.4838   -2.3927  -21.0922 H   0  0  0  0  0  0  0  0  0  0  0  0
   -9.1388   -0.1326  -21.1822 H   0  0  0  0  0  0  0  0  0  0  0  0
   -7.8779    0.4399  -22.2675 H   0  0  0  0  0  0  0  0  0  0  0  0
   -8.2649   -1.3195  -23.8663 H   0  0  0  0  0  0  0  0  0  0  0  0
  -10.9720   -0.7731  -22.5359 H   0  0  0  0  0  0  0  0  0  0  0  0
  -10.3197    0.0531  -23.9480 H   0  0  0  0  0  0  0  0  0  0  0  0
  -10.8111   -1.6480  -24.0589 H   0  0  0  0  0  0  0  0  0  0  0  0
  1  2  1  0
  2  3  1  0
  3  4  1  0
  4  5  1  0
  5  6  2  0
  6  7  1  0
  7  8  2  0
  8  9  1  0
  9 10  2  0
 10 11  1  0
 11 12  2  0
 12 13  1  0
 13 14  2  0
 13 15  1  0
 12 16  1  0
 11 17  1  0
 10 18  1  0
  8 19  1  0
  6 20  1  0
  4 21  1  0
 21 22  2  0
 21 23  1  0
 23 24  1  1
 24 25  1  0
 25 26  1  0
 26 27  1  0
 27 28  2  0
 28 29  1  0
 29 30  2  0
 30 31  1  0
 31 32  2  0
 31 33  1  0
 30 34  1  0
 29 35  1  0
 26 36  1  0
 26 37  1  0
 25 38  1  0
 38 39  2  0
 38 40  1  0
 40 41  2  0
 41 42  1  0
 42 43  2  0
 43 44  1  0
 43 45  1  0
 45 46  2  0
 45 47  1  0
 42 48  1  0
 41 49  1  0
 24 50  1  0
 24 51  1  0
  3 52  1  0
  3 53  1  0
  2 54  1  6
  1 55  1  0
  1 56  1  0
  1 57  1  0
 23  2  1  0
 32 27  1  0
 46 40  1  0
 14  5  1  0
 46 23  1  0
 14  9  1  0
M  END
>  <cnnaffinities>  (54) 
[6.3734, 6.37747]

>  <score>  (54) 
6.3734

>  <index>  (54) 
56

>  <Smiles>  (54) 
C([C@]1(C(N(c2c(nc(c3c(c(c(c(c23)[H])[H])[H])[H])[H])[H])C(=O)[C@]21C(N(C(c1nc(c(c(n1)[H])[H])[H])([H])[H])C(=O)c1c(c(c(F)c(c21)[H])[H])[H])([H])[H])([H])[H])[H])([H])([H])[H]

>  <h>  (54) 
<NA>

>  <Training>  (54) 
True

>  <Success>  (54) 
True

>  <enamine_searched>  (54) 
False

>  <enamine_id>  (54) 
nan

$$$$

     RDKit          3D

 59 63  0  0  0  0  0  0  0  0999 V2000
  -14.5195   -1.2284  -23.5506 C   0  0  0  0  0  0  0  0  0  0  0  0
  -13.7998   -2.4215  -23.1547 N   0  0  0  0  0  0  0  0  0  0  0  0
  -13.4745   -2.6020  -21.8470 C   0  0  0  0  0  0  0  0  0  0  0  0
  -13.9382   -1.9223  -20.9484 O   0  0  0  0  0  0  0  0  0  0  0  0
  -12.5557   -3.7958  -21.5824 C   0  0  0  0  0  0  0  0  0  0  0  0
  -11.2319   -3.7282  -22.1932 N   0  0  0  0  0  0  0  0  0  0  0  0
  -10.0822   -3.2847  -21.4105 C   0  0  0  0  0  0  0  0  0  0  0  0
   -8.8449   -2.9455  -22.2884 C   0  0  2  0  0  0  0  0  0  0  0  0
   -7.6248   -2.7321  -21.3722 C   0  0  0  0  0  0  0  0  0  0  0  0
   -6.9461   -3.5980  -20.8551 O   0  0  0  0  0  0  0  0  0  0  0  0
   -7.3881   -1.3786  -21.2391 N   0  0  0  0  0  0  0  0  0  0  0  0
   -6.5926   -0.8597  -20.1862 C   0  0  0  0  0  0  0  0  0  0  0  0
   -6.9000   -1.1150  -18.8726 C   0  0  0  0  0  0  0  0  0  0  0  0
   -6.2270   -0.5940  -17.8160 N   0  0  0  0  0  0  0  0  0  0  0  0
   -5.2109    0.1933  -18.0762 C   0  0  0  0  0  0  0  0  0  0  0  0
   -4.7735    0.5234  -19.3900 C   0  0  0  0  0  0  0  0  0  0  0  0
   -3.6514    1.3592  -19.6217 C   0  0  0  0  0  0  0  0  0  0  0  0
   -3.2741    1.6671  -20.8989 C   0  0  0  0  0  0  0  0  0  0  0  0
   -4.0005    1.1613  -21.9998 C   0  0  0  0  0  0  0  0  0  0  0  0
   -5.0706    0.3258  -21.8027 C   0  0  0  0  0  0  0  0  0  0  0  0
   -5.4884   -0.0039  -20.4865 C   0  0  0  0  0  0  0  0  0  0  0  0
   -5.5926   -0.0995  -22.6528 H   0  0  0  0  0  0  0  0  0  0  0  0
   -3.6873    1.4150  -23.0078 H   0  0  0  0  0  0  0  0  0  0  0  0
   -2.4100    2.2996  -21.0784 H   0  0  0  0  0  0  0  0  0  0  0  0
   -3.1120    1.7494  -18.7633 H   0  0  0  0  0  0  0  0  0  0  0  0
   -4.6705    0.6112  -17.2260 H   0  0  0  0  0  0  0  0  0  0  0  0
   -7.7381   -1.7633  -18.6261 H   0  0  0  0  0  0  0  0  0  0  0  0
   -8.3878   -0.5688  -21.9166 C   0  0  0  0  0  0  0  0  0  0  0  0
   -9.0002   -1.5148  -22.9791 C   0  0  0  0  0  0  0  0  0  0  0  0
  -10.4492   -1.1123  -23.2680 C   0  0  0  0  0  0  0  0  0  0  0  0
  -11.0516   -1.0831  -22.3554 H   0  0  0  0  0  0  0  0  0  0  0  0
  -10.9046   -1.8325  -23.9522 H   0  0  0  0  0  0  0  0  0  0  0  0
  -10.4872   -0.1215  -23.7291 H   0  0  0  0  0  0  0  0  0  0  0  0
   -8.2209   -1.4491  -24.3028 C   0  0  0  0  0  0  0  0  0  0  0  0
   -8.6399   -2.1753  -25.0083 H   0  0  0  0  0  0  0  0  0  0  0  0
   -8.3138   -0.4507  -24.7426 H   0  0  0  0  0  0  0  0  0  0  0  0
   -7.1570   -1.6856  -24.1760 H   0  0  0  0  0  0  0  0  0  0  0  0
   -7.9355    0.3261  -22.3575 H   0  0  0  0  0  0  0  0  0  0  0  0
   -9.1568   -0.2321  -21.2011 H   0  0  0  0  0  0  0  0  0  0  0  0
   -8.6048   -4.1111  -23.2224 C   0  0  0  0  0  0  0  0  0  0  0  0
   -7.3184   -4.4628  -23.6594 C   0  0  0  0  0  0  0  0  0  0  0  0
   -7.1608   -5.4604  -24.6068 C   0  0  0  0  0  0  0  0  0  0  0  0
   -5.5701   -5.8078  -25.2188 Cl  0  0  0  0  0  0  0  0  0  0  0  0
   -8.2482   -6.1710  -25.1138 C   0  0  0  0  0  0  0  0  0  0  0  0
   -9.5116   -5.8416  -24.6594 C   0  0  0  0  0  0  0  0  0  0  0  0
   -9.6924   -4.8126  -23.7387 C   0  0  0  0  0  0  0  0  0  0  0  0
  -11.0778   -4.4680  -23.3298 C   0  0  0  0  0  0  0  0  0  0  0  0
  -12.0503   -4.8355  -23.9755 O   0  0  0  0  0  0  0  0  0  0  0  0
  -10.3847   -6.3863  -24.9982 H   0  0  0  0  0  0  0  0  0  0  0  0
   -8.0984   -6.9533  -25.8541 H   0  0  0  0  0  0  0  0  0  0  0  0
   -6.4440   -3.9527  -23.2669 H   0  0  0  0  0  0  0  0  0  0  0  0
  -10.3580   -2.3815  -20.8559 H   0  0  0  0  0  0  0  0  0  0  0  0
   -9.8079   -4.0642  -20.6942 H   0  0  0  0  0  0  0  0  0  0  0  0
  -12.5014   -3.9584  -20.5020 H   0  0  0  0  0  0  0  0  0  0  0  0
  -13.0712   -4.6380  -22.0593 H   0  0  0  0  0  0  0  0  0  0  0  0
  -13.5338   -3.1269  -23.8235 H   0  0  0  0  0  0  0  0  0  0  0  0
  -13.8755   -0.3427  -23.5271 H   0  0  0  0  0  0  0  0  0  0  0  0
  -14.9133   -1.3582  -24.5581 H   0  0  0  0  0  0  0  0  0  0  0  0
  -15.3376   -1.0517  -22.8535 H   0  0  0  0  0  0  0  0  0  0  0  0
  1  2  1  0
  2  3  1  0
  3  4  2  0
  3  5  1  0
  5  6  1  0
  6  7  1  0
  8  7  1  1
  8  9  1  0
  9 10  2  0
  9 11  1  0
 11 12  1  0
 12 13  2  0
 13 14  1  0
 14 15  2  0
 15 16  1  0
 16 17  2  0
 17 18  1  0
 18 19  2  0
 19 20  1  0
 20 21  2  0
 20 22  1  0
 19 23  1  0
 18 24  1  0
 17 25  1  0
 15 26  1  0
 13 27  1  0
 11 28  1  0
 28 29  1  0
 29 30  1  0
 30 31  1  0
 30 32  1  0
 30 33  1  0
 29 34  1  0
 34 35  1  0
 34 36  1  0
 34 37  1  0
 28 38  1  0
 28 39  1  0
  8 40  1  0
 40 41  2  0
 41 42  1  0
 42 43  1  0
 42 44  2  0
 44 45  1  0
 45 46  2  0
 46 47  1  0
 47 48  2  0
 45 49  1  0
 44 50  1  0
 41 51  1  0
  7 52  1  0
  7 53  1  0
  5 54  1  0
  5 55  1  0
  2 56  1  0
  1 57  1  0
  1 58  1  0
  1 59  1  0
 47  6  1  0
 29  8  1  0
 46 40  1  0
 21 12  1  0
 21 16  1  0
M  END
>  <cnnaffinities>  (55) 
[6.20929, 6.25604, 6.24426]

>  <score>  (55) 
6.20929

>  <index>  (55) 
57

>  <Smiles>  (55) 
C(N(C(=O)C(N1C([C@@]2(C(=O)N(c3c(nc(c4c(c(c(c(c34)[H])[H])[H])[H])[H])[H])C(C2(C([H])([H])[H])C([H])([H])[H])([H])[H])c2c(c(Cl)c(c(c2C1=O)[H])[H])[H])([H])[H])([H])[H])[H])([H])([H])[H]

>  <h>  (55) 
<NA>

>  <Training>  (55) 
True

>  <Success>  (55) 
True

>  <enamine_searched>  (55) 
False

>  <enamine_id>  (55) 
nan

$$$$

     RDKit          3D

 42 45  0  0  0  0  0  0  0  0999 V2000
  -12.0276   -4.1039  -22.9123 C   0  0  0  0  0  0  0  0  0  0  0  0
  -10.6166   -4.4268  -22.9250 N   0  0  0  0  0  0  0  0  0  0  0  0
   -9.7700   -3.9773  -21.8441 C   0  0  0  0  0  0  0  0  0  0  0  0
   -8.6141   -3.1245  -22.3997 C   0  0  1  0  0  0  0  0  0  0  0  0
   -7.6295   -2.6940  -21.3168 C   0  0  0  0  0  0  0  0  0  0  0  0
   -7.0330   -3.4839  -20.6143 O   0  0  0  0  0  0  0  0  0  0  0  0
   -7.4111   -1.3352  -21.2135 N   0  0  0  0  0  0  0  0  0  0  0  0
   -6.6057   -0.8047  -20.1841 C   0  0  0  0  0  0  0  0  0  0  0  0
   -6.9031   -1.0632  -18.8719 C   0  0  0  0  0  0  0  0  0  0  0  0
   -6.2129   -0.5660  -17.8185 N   0  0  0  0  0  0  0  0  0  0  0  0
   -5.1835    0.2055  -18.0792 C   0  0  0  0  0  0  0  0  0  0  0  0
   -4.7530    0.5382  -19.3930 C   0  0  0  0  0  0  0  0  0  0  0  0
   -3.6211    1.3605  -19.6259 C   0  0  0  0  0  0  0  0  0  0  0  0
   -3.2349    1.6557  -20.9049 C   0  0  0  0  0  0  0  0  0  0  0  0
   -3.9635    1.1445  -22.0029 C   0  0  0  0  0  0  0  0  0  0  0  0
   -5.0431    0.3226  -21.8058 C   0  0  0  0  0  0  0  0  0  0  0  0
   -5.4782    0.0199  -20.4897 C   0  0  0  0  0  0  0  0  0  0  0  0
   -5.5563   -0.1088  -22.6611 H   0  0  0  0  0  0  0  0  0  0  0  0
   -3.6328    1.3734  -23.0133 H   0  0  0  0  0  0  0  0  0  0  0  0
   -2.3642    2.2782  -21.0886 H   0  0  0  0  0  0  0  0  0  0  0  0
   -3.0825    1.7541  -18.7687 H   0  0  0  0  0  0  0  0  0  0  0  0
   -4.6327    0.6063  -17.2276 H   0  0  0  0  0  0  0  0  0  0  0  0
   -7.7493   -1.7019  -18.6255 H   0  0  0  0  0  0  0  0  0  0  0  0
   -7.7128   -0.7145  -21.9516 H   0  0  0  0  0  0  0  0  0  0  0  0
   -7.9096   -3.9405  -23.4598 C   0  0  0  0  0  0  0  0  0  0  0  0
   -6.5632   -3.7239  -23.7247 C   0  0  0  0  0  0  0  0  0  0  0  0
   -5.9413   -4.4495  -24.7241 C   0  0  0  0  0  0  0  0  0  0  0  0
   -4.2763   -4.1216  -25.0883 Cl  0  0  0  0  0  0  0  0  0  0  0  0
   -6.6228   -5.4219  -25.4507 C   0  0  0  0  0  0  0  0  0  0  0  0
   -7.9622   -5.6467  -25.1766 C   0  0  0  0  0  0  0  0  0  0  0  0
   -8.6115   -4.8968  -24.1954 C   0  0  0  0  0  0  0  0  0  0  0  0
  -10.0930   -5.0675  -24.0149 C   0  0  0  0  0  0  0  0  0  0  0  0
  -10.7814   -5.6854  -24.8107 O   0  0  0  0  0  0  0  0  0  0  0  0
   -8.5398   -6.3928  -25.7167 H   0  0  0  0  0  0  0  0  0  0  0  0
   -6.1155   -5.9706  -26.2374 H   0  0  0  0  0  0  0  0  0  0  0  0
   -6.0102   -2.9922  -23.1458 H   0  0  0  0  0  0  0  0  0  0  0  0
   -9.0404   -2.2162  -22.8492 H   0  0  0  0  0  0  0  0  0  0  0  0
  -10.3962   -3.4031  -21.1587 H   0  0  0  0  0  0  0  0  0  0  0  0
   -9.3666   -4.8525  -21.3186 H   0  0  0  0  0  0  0  0  0  0  0  0
  -12.4639   -4.3202  -21.9247 H   0  0  0  0  0  0  0  0  0  0  0  0
  -12.4897   -4.7068  -23.6951 H   0  0  0  0  0  0  0  0  0  0  0  0
  -12.1540   -3.0382  -23.1466 H   0  0  0  0  0  0  0  0  0  0  0  0
  1  2  1  0
  2  3  1  0
  3  4  1  0
  4  5  1  0
  5  6  2  0
  5  7  1  0
  7  8  1  0
  8  9  2  0
  9 10  1  0
 10 11  2  0
 11 12  1  0
 12 13  2  0
 13 14  1  0
 14 15  2  0
 15 16  1  0
 16 17  2  0
 16 18  1  0
 15 19  1  0
 14 20  1  0
 13 21  1  0
 11 22  1  0
  9 23  1  0
  7 24  1  0
  4 25  1  0
 25 26  2  0
 26 27  1  0
 27 28  1  0
 27 29  2  0
 29 30  1  0
 30 31  2  0
 31 32  1  0
 32 33  2  0
 30 34  1  0
 29 35  1  0
 26 36  1  0
  4 37  1  6
  3 38  1  0
  3 39  1  0
  1 40  1  0
  1 41  1  0
  1 42  1  0
 32  2  1  0
 17  8  1  0
 31 25  1  0
 17 12  1  0
M  END
>  <cnnaffinities>  (56) 
[5.16039, 4.94615, 4.70652, 5.17113]

>  <score>  (56) 
5.16039

>  <index>  (56) 
58

>  <Smiles>  (56) 
C(N1C([C@@](C(=O)N(c2c(nc(c3c(c(c(c(c23)[H])[H])[H])[H])[H])[H])[H])(c2c(c(Cl)c(c(c2C1=O)[H])[H])[H])[H])([H])[H])([H])([H])[H]

>  <h>  (56) 
<NA>

>  <Training>  (56) 
True

>  <Success>  (56) 
True

>  <enamine_searched>  (56) 
False

>  <enamine_id>  (56) 
nan

$$$$

     RDKit          3D

 60 65  0  0  0  0  0  0  0  0999 V2000
   -7.3907    3.3847  -21.7844 C   0  0  0  0  0  0  0  0  0  0  0  0
   -8.2648    2.9300  -22.8543 N   0  0  0  0  0  0  0  0  0  0  0  0
   -7.7002    2.2410  -23.8718 C   0  0  0  0  0  0  0  0  0  0  0  0
   -6.4865    2.1238  -23.9897 O   0  0  0  0  0  0  0  0  0  0  0  0
   -8.6505    1.6204  -24.9008 C   0  0  0  0  0  0  0  0  0  0  0  0
   -9.3721    0.4645  -24.4032 N   0  0  0  0  0  0  0  0  0  0  0  0
   -8.6549   -0.7853  -24.2341 C   0  0  0  0  0  0  0  0  0  0  0  0
   -9.0492   -1.5015  -22.9163 C   0  0  2  0  0  0  0  0  0  0  0  0
   -8.4975   -0.7219  -21.6964 C   0  0  0  0  0  0  0  0  0  0  0  0
   -8.9366    0.3091  -21.2216 O   0  0  0  0  0  0  0  0  0  0  0  0
   -7.3974   -1.3886  -21.2067 N   0  0  0  0  0  0  0  0  0  0  0  0
   -6.6014   -0.8173  -20.1760 C   0  0  0  0  0  0  0  0  0  0  0  0
   -6.9100   -1.0483  -18.8602 C   0  0  0  0  0  0  0  0  0  0  0  0
   -6.2060   -0.5592  -17.8109 N   0  0  0  0  0  0  0  0  0  0  0  0
   -5.1703    0.2011  -18.0763 C   0  0  0  0  0  0  0  0  0  0  0  0
   -4.7357    0.5310  -19.3911 C   0  0  0  0  0  0  0  0  0  0  0  0
   -3.6122    1.3704  -19.6338 C   0  0  0  0  0  0  0  0  0  0  0  0
   -3.2378    1.6731  -20.9139 C   0  0  0  0  0  0  0  0  0  0  0  0
   -3.9725    1.1621  -22.0050 C   0  0  0  0  0  0  0  0  0  0  0  0
   -5.0529    0.3392  -21.7984 C   0  0  0  0  0  0  0  0  0  0  0  0
   -5.4727    0.0076  -20.4820 C   0  0  0  0  0  0  0  0  0  0  0  0
   -5.5965   -0.0607  -22.6493 H   0  0  0  0  0  0  0  0  0  0  0  0
   -3.6710    1.3988  -23.0211 H   0  0  0  0  0  0  0  0  0  0  0  0
   -2.3717    2.3057  -21.0989 H   0  0  0  0  0  0  0  0  0  0  0  0
   -3.0725    1.7699  -18.7787 H   0  0  0  0  0  0  0  0  0  0  0  0
   -4.6220    0.6067  -17.2256 H   0  0  0  0  0  0  0  0  0  0  0  0
   -7.7663   -1.6695  -18.6063 H   0  0  0  0  0  0  0  0  0  0  0  0
   -7.0705   -2.6081  -21.9194 C   0  0  0  0  0  0  0  0  0  0  0  0
   -8.3213   -2.8758  -22.7788 C   0  0  2  0  0  0  0  0  0  0  0  0
   -7.9812   -3.6277  -24.0851 C   0  0  0  0  0  0  0  0  0  0  0  0
   -7.4393   -4.9897  -23.7970 C   0  0  0  0  0  0  0  0  0  0  0  0
   -6.1483   -5.2791  -23.7082 N   0  0  0  0  0  0  0  0  0  0  0  0
   -6.1095   -6.5703  -23.3899 N   0  0  0  0  0  0  0  0  0  0  0  0
   -7.3313   -7.0297  -23.2977 N   0  0  0  0  0  2  0  0  0  0  0  0
   -8.1927   -6.0500  -23.5511 N   0  0  0  0  0  0  0  0  0  0  0  0
   -7.2172   -3.0954  -24.6603 H   0  0  0  0  0  0  0  0  0  0  0  0
   -8.8758   -3.7589  -24.7004 H   0  0  0  0  0  0  0  0  0  0  0  0
   -8.9877   -3.5319  -22.2124 H   0  0  0  0  0  0  0  0  0  0  0  0
   -6.8572   -3.4321  -21.2283 H   0  0  0  0  0  0  0  0  0  0  0  0
   -6.1763   -2.4803  -22.5505 H   0  0  0  0  0  0  0  0  0  0  0  0
  -10.5669   -1.5431  -22.8409 C   0  0  0  0  0  0  0  0  0  0  0  0
  -11.2010   -2.4215  -21.9536 C   0  0  0  0  0  0  0  0  0  0  0  0
  -12.5808   -2.4381  -21.8628 C   0  0  0  0  0  0  0  0  0  0  0  0
  -13.3598   -3.5260  -20.7506 Cl  0  0  0  0  0  0  0  0  0  0  0  0
  -13.3696   -1.5800  -22.6288 C   0  0  0  0  0  0  0  0  0  0  0  0
  -12.7504   -0.6611  -23.4525 C   0  0  0  0  0  0  0  0  0  0  0  0
  -11.3587   -0.6153  -23.5330 C   0  0  0  0  0  0  0  0  0  0  0  0
  -10.7336    0.5218  -24.2853 C   0  0  0  0  0  0  0  0  0  0  0  0
  -11.3993    1.4539  -24.7200 O   0  0  0  0  0  0  0  0  0  0  0  0
  -13.3134    0.0666  -24.0290 H   0  0  0  0  0  0  0  0  0  0  0  0
  -14.4484   -1.6195  -22.5413 H   0  0  0  0  0  0  0  0  0  0  0  0
  -10.6252   -3.0710  -21.3053 H   0  0  0  0  0  0  0  0  0  0  0  0
   -7.5878   -0.5429  -24.2186 H   0  0  0  0  0  0  0  0  0  0  0  0
   -8.8599   -1.4651  -25.0784 H   0  0  0  0  0  0  0  0  0  0  0  0
   -8.0185    1.3506  -25.7545 H   0  0  0  0  0  0  0  0  0  0  0  0
   -9.4246    2.3234  -25.2181 H   0  0  0  0  0  0  0  0  0  0  0  0
   -9.2579    2.8512  -22.6970 H   0  0  0  0  0  0  0  0  0  0  0  0
   -6.7902    2.5406  -21.4146 H   0  0  0  0  0  0  0  0  0  0  0  0
   -6.7033    4.1558  -22.1496 H   0  0  0  0  0  0  0  0  0  0  0  0
   -7.9996    3.8082  -20.9872 H   0  0  0  0  0  0  0  0  0  0  0  0
  1  2  1  0
  2  3  1  0
  3  4  2  0
  3  5  1  0
  5  6  1  0
  6  7  1  0
  8  7  1  6
  8  9  1  0
  9 10  2  0
  9 11  1  0
 11 12  1  0
 12 13  2  0
 13 14  1  0
 14 15  2  0
 15 16  1  0
 16 17  2  0
 17 18  1  0
 18 19  2  0
 19 20  1  0
 20 21  2  0
 20 22  1  0
 19 23  1  0
 18 24  1  0
 17 25  1  0
 15 26  1  0
 13 27  1  0
 11 28  1  0
 28 29  1  0
 29 30  1  0
 30 31  1  0
 31 32  1  0
 32 33  2  0
 33 34  1  0
 34 35  1  0
 30 36  1  0
 30 37  1  0
 29 38  1  1
 28 39  1  0
 28 40  1  0
  8 41  1  0
 41 42  2  0
 42 43  1  0
 43 44  1  0
 43 45  2  0
 45 46  1  0
 46 47  2  0
 47 48  1  0
 48 49  2  0
 46 50  1  0
 45 51  1  0
 42 52  1  0
  7 53  1  0
  7 54  1  0
  5 55  1  0
  5 56  1  0
  2 57  1  0
  1 58  1  0
  1 59  1  0
  1 60  1  0
 48  6  1  0
 29  8  1  0
 35 31  2  0
 47 41  1  0
 21 12  1  0
 21 16  1  0
M  CHG  1  34  -1
M  END
>  <cnnaffinities>  (57) 
[6.37528, 6.3704, 6.07893, 6.08916]

>  <score>  (57) 
6.37528

>  <index>  (57) 
59

>  <Smiles>  (57) 
C(N(C(=O)C(N1C([C@@]2(C(=O)N(c3c(nc(c4c(c(c(c(c34)[H])[H])[H])[H])[H])[H])C([C@@]2(C(c2nn[n-]n2)([H])[H])[H])([H])[H])c2c(c(Cl)c(c(c2C1=O)[H])[H])[H])([H])[H])([H])[H])[H])([H])([H])[H]

>  <h>  (57) 
<NA>

>  <Training>  (57) 
True

>  <Success>  (57) 
True

>  <enamine_searched>  (57) 
False

>  <enamine_id>  (57) 
nan

$$$$

     RDKit          3D

 62 67  0  0  0  0  0  0  0  0999 V2000
  -11.6804    4.5914  -22.6343 C   0  0  0  0  0  0  0  0  0  0  0  0
  -11.5339    2.4329  -21.6730 C   0  0  0  0  0  0  0  0  0  0  0  0
  -11.0914    3.3184  -22.7668 N   0  0  0  0  0  0  0  0  0  0  0  0
  -12.7950    4.9434  -23.1519 N   0  0  0  0  0  0  0  0  0  0  0  0
  -13.4491    3.9811  -23.9165 C   0  0  0  0  0  0  0  0  0  0  0  0
  -12.8516    2.8595  -24.3505 C   0  0  0  0  0  0  0  0  0  0  0  0
  -11.3839    2.8128  -24.1243 C   0  0  0  0  0  0  0  0  0  0  0  0
  -10.5701    1.5898  -24.5864 C   0  0  0  0  0  0  0  0  0  0  0  0
  -10.7295    0.2479  -24.0331 N   0  0  0  0  0  0  0  0  0  0  0  0
   -9.6130   -0.6393  -24.3648 C   0  0  0  0  0  0  0  0  0  0  0  0
   -9.4161   -1.7205  -23.2714 C   0  0  2  0  0  0  0  0  0  0  0  0
   -8.9862   -0.9694  -21.9878 C   0  0  0  0  0  0  0  0  0  0  0  0
   -9.7177   -0.4070  -21.1985 O   0  0  0  0  0  0  0  0  0  0  0  0
   -7.6126   -1.0035  -21.8920 N   0  0  0  0  0  0  0  0  0  0  0  0
   -6.9617   -0.6187  -20.7024 C   0  0  0  0  0  0  0  0  0  0  0  0
   -7.4180   -1.0649  -19.4822 C   0  0  0  0  0  0  0  0  0  0  0  0
   -6.8383   -0.7691  -18.2945 N   0  0  0  0  0  0  0  0  0  0  0  0
   -5.7774    0.0015  -18.3165 C   0  0  0  0  0  0  0  0  0  0  0  0
   -5.1909    0.5171  -19.5049 C   0  0  0  0  0  0  0  0  0  0  0  0
   -4.0130    1.3098  -19.4743 C   0  0  0  0  0  0  0  0  0  0  0  0
   -3.4546    1.7623  -20.6369 C   0  0  0  0  0  0  0  0  0  0  0  0
   -4.0696    1.4817  -21.8765 C   0  0  0  0  0  0  0  0  0  0  0  0
   -5.2262    0.7453  -21.9302 C   0  0  0  0  0  0  0  0  0  0  0  0
   -5.7966    0.2127  -20.7431 C   0  0  0  0  0  0  0  0  0  0  0  0
   -5.7117    0.5790  -22.8851 H   0  0  0  0  0  0  0  0  0  0  0  0
   -3.6199    1.8461  -22.7944 H   0  0  0  0  0  0  0  0  0  0  0  0
   -2.5374    2.3437  -20.6170 H   0  0  0  0  0  0  0  0  0  0  0  0
   -3.5746    1.5464  -18.5088 H   0  0  0  0  0  0  0  0  0  0  0  0
   -5.3199    0.2445  -17.3566 H   0  0  0  0  0  0  0  0  0  0  0  0
   -8.2911   -1.7123  -19.4292 H   0  0  0  0  0  0  0  0  0  0  0  0
   -6.9994   -1.7410  -22.9948 C   0  0  0  0  0  0  0  0  0  0  0  0
   -8.1633   -2.6057  -23.5187 C   0  0  2  0  0  0  0  0  0  0  0  0
   -7.9682   -3.1237  -24.9378 C   0  0  0  0  0  0  0  0  0  0  0  0
   -7.7874   -2.2962  -25.6332 H   0  0  0  0  0  0  0  0  0  0  0  0
   -7.1196   -3.8105  -24.9968 H   0  0  0  0  0  0  0  0  0  0  0  0
   -8.8569   -3.6574  -25.2918 H   0  0  0  0  0  0  0  0  0  0  0  0
   -8.1932   -3.4505  -22.8220 H   0  0  0  0  0  0  0  0  0  0  0  0
   -6.6460   -1.0646  -23.7852 H   0  0  0  0  0  0  0  0  0  0  0  0
   -6.1481   -2.3265  -22.6385 H   0  0  0  0  0  0  0  0  0  0  0  0
  -10.7460   -2.4436  -23.0080 C   0  0  0  0  0  0  0  0  0  0  0  0
  -10.6509   -3.6677  -22.4570 C   0  0  0  0  0  0  0  0  0  0  0  0
  -13.0904   -3.5777  -22.6754 C   0  0  0  0  0  0  0  0  0  0  0  0
  -11.0898   -3.9789  -21.2289 F   0  0  0  0  0  0  0  0  0  0  0  0
  -13.2840   -3.7144  -22.6882 C   0  0  0  0  0  0  0  0  0  0  0  0
  -13.1339   -2.2441  -22.8602 C   0  0  0  0  0  0  0  0  0  0  0  0
  -11.8762   -1.6605  -23.1120 C   0  0  0  0  0  0  0  0  0  0  0  0
  -11.9272   -0.3021  -23.6293 C   0  0  0  0  0  0  0  0  0  0  0  0
  -13.0070    0.2776  -23.6760 O   0  0  0  0  0  0  0  0  0  0  0  0
  -13.8961   -1.6453  -22.4889 H   0  0  0  0  0  0  0  0  0  0  0  0
  -14.1955   -3.6194  -22.0495 H   0  0  0  0  0  0  0  0  0  0  0  0
  -10.2686   -4.5710  -22.8958 H   0  0  0  0  0  0  0  0  0  0  0  0
   -8.7055   -0.0278  -24.4204 H   0  0  0  0  0  0  0  0  0  0  0  0
   -9.7559   -1.1050  -25.3526 H   0  0  0  0  0  0  0  0  0  0  0  0
  -10.6663    1.5462  -25.6795 H   0  0  0  0  0  0  0  0  0  0  0  0
   -9.5289    1.8685  -24.3879 H   0  0  0  0  0  0  0  0  0  0  0  0
  -13.3729    2.0567  -24.8361 H   0  0  0  0  0  0  0  0  0  0  0  0
  -14.4634    4.2309  -24.2136 H   0  0  0  0  0  0  0  0  0  0  0  0
  -10.7005    1.8141  -21.3281 H   0  0  0  0  0  0  0  0  0  0  0  0
  -11.9063    3.0396  -20.8418 H   0  0  0  0  0  0  0  0  0  0  0  0
  -11.1490    5.2752  -21.9743 H   0  0  0  0  0  0  0  0  0  0  0  0
  -10.9642    3.5921  -24.7829 H   0  0  0  0  0  0  0  0  0  0  0  0
  -12.3450    1.7774  -22.0106 H   0  0  0  0  0  0  0  0  0  0  0  0
  1  2  1  0
  2  3  1  0
  3  4  1  0
  4  5  2  0
  5  6  1  0
  6  7  2  0
  7  8  1  0
  8  9  1  0
  9 10  1  0
 11 10  1  6
 11 12  1  0
 12 13  2  0
 12 14  1  0
 14 15  1  0
 15 16  2  0
 16 17  1  0
 17 18  2  0
 18 19  1  0
 19 20  2  0
 20 21  1  0
 21 22  2  0
 22 23  1  0
 23 24  2  0
 23 25  1  0
 22 26  1  0
 21 27  1  0
 20 28  1  0
 18 29  1  0
 16 30  1  0
 14 31  1  0
 31 32  1  0
 32 33  1  0
 33 34  1  0
 33 35  1  0
 33 36  1  0
 32 37  1  1
 31 38  1  0
 31 39  1  0
 11 40  1  0
 40 41  2  0
 41 42  1  0
 42 43  1  0
 42 44  2  0
 44 45  1  0
 45 46  2  0
 46 47  1  0
 47 48  2  0
 45 49  1  0
 44 50  1  0
 41 51  1  0
 10 52  1  0
 10 53  1  0
  8 54  1  0
  8 55  1  0
  6 56  1  0
  5 57  1  0
  2 58  1  0
  2 59  1  0
  1 60  1  0
  1 61  1  0
  1 62  1  0
  7  3  1  0
 47  9  1  0
 32 11  1  0
 46 40  1  0
 24 15  1  0
 24 19  1  0
M  END
>  <cnnaffinities>  (58) 
[6.17558]

>  <score>  (58) 
6.17558

>  <index>  (58) 
60

>  <Smiles>  (58) 
C(C(n1nc(c(c1C(N1C([C@@]2(C(=O)N(c3c(nc(c4c(c(c(c(c34)[H])[H])[H])[H])[H])[H])C([C@@]2(C([H])([H])[H])[H])([H])[H])c2c(c(F)c(c(c2C1=O)[H])[H])[H])([H])[H])([H])[H])[H])[H])([H])[H])([H])([H])[H]

>  <h>  (58) 
<NA>

>  <Training>  (58) 
True

>  <Success>  (58) 
True

>  <enamine_searched>  (58) 
False

>  <enamine_id>  (58) 
nan

$$$$

     RDKit          3D

 44 47  0  0  0  0  0  0  0  0999 V2000
   -8.4229    0.7683  -21.5574 O   0  0  0  0  0  0  0  0  0  0  0  0
   -8.5402   -0.4291  -21.7662 C   0  0  0  0  0  0  0  0  0  0  0  0
   -7.4779   -1.4165  -21.2659 C   0  0  0  0  0  0  0  0  0  0  0  0
   -6.6067   -0.8312  -20.1827 C   0  0  0  0  0  0  0  0  0  0  0  0
   -6.9013   -1.0573  -18.8643 C   0  0  0  0  0  0  0  0  0  0  0  0
   -6.2141   -0.5640  -17.8005 N   0  0  0  0  0  0  0  0  0  0  0  0
   -5.1824    0.2044  -18.0683 C   0  0  0  0  0  0  0  0  0  0  0  0
   -4.7584    0.5330  -19.3822 C   0  0  0  0  0  0  0  0  0  0  0  0
   -3.6341    1.3636  -19.6137 C   0  0  0  0  0  0  0  0  0  0  0  0
   -3.2544    1.6779  -20.8912 C   0  0  0  0  0  0  0  0  0  0  0  0
   -3.9959    1.1803  -21.9894 C   0  0  0  0  0  0  0  0  0  0  0  0
   -5.0771    0.3578  -21.7898 C   0  0  0  0  0  0  0  0  0  0  0  0
   -5.4927    0.0116  -20.4771 C   0  0  0  0  0  0  0  0  0  0  0  0
   -5.6282   -0.0238  -22.6444 H   0  0  0  0  0  0  0  0  0  0  0  0
   -3.6769    1.4272  -22.9982 H   0  0  0  0  0  0  0  0  0  0  0  0
   -2.3882    2.3070  -21.0732 H   0  0  0  0  0  0  0  0  0  0  0  0
   -3.0897    1.7476  -18.7526 H   0  0  0  0  0  0  0  0  0  0  0  0
   -4.6236    0.6122  -17.2244 H   0  0  0  0  0  0  0  0  0  0  0  0
   -7.7515   -1.6856  -18.5932 H   0  0  0  0  0  0  0  0  0  0  0  0
   -7.9974   -2.2985  -20.8732 H   0  0  0  0  0  0  0  0  0  0  0  0
   -6.8773   -1.7586  -22.1197 H   0  0  0  0  0  0  0  0  0  0  0  0
   -9.6305   -0.9509  -22.4117 N   0  0  0  0  0  0  0  0  0  0  0  0
  -10.7258   -0.0386  -22.7124 C   0  0  0  0  0  0  0  0  0  0  0  0
  -12.0505   -0.7792  -22.5800 C   0  0  0  0  0  0  0  0  0  0  0  0
  -12.2295   -1.9650  -23.5334 C   0  0  0  0  0  0  0  0  0  0  0  0
  -13.2670   -1.7402  -24.6705 C   0  0  0  0  0  0  0  0  0  0  0  0
  -14.2467   -2.7303  -23.9982 C   0  0  0  0  0  0  0  0  0  0  0  0
  -13.1683   -3.0537  -22.9402 C   0  0  0  0  0  0  0  0  0  0  0  0
  -13.4614   -2.8527  -21.9033 H   0  0  0  0  0  0  0  0  0  0  0  0
  -12.7508   -4.0635  -22.9837 H   0  0  0  0  0  0  0  0  0  0  0  0
  -15.1292   -2.2387  -23.5852 H   0  0  0  0  0  0  0  0  0  0  0  0
  -14.6214   -3.5538  -24.6116 H   0  0  0  0  0  0  0  0  0  0  0  0
  -13.6607   -0.7208  -24.7138 H   0  0  0  0  0  0  0  0  0  0  0  0
  -12.9193   -2.0072  -25.6717 H   0  0  0  0  0  0  0  0  0  0  0  0
  -10.8425   -2.4500  -23.9610 C   0  0  0  0  0  0  0  0  0  0  0  0
   -9.7772   -2.3353  -22.8622 C   0  0  0  0  0  0  0  0  0  0  0  0
   -8.8174   -2.6727  -23.2661 H   0  0  0  0  0  0  0  0  0  0  0  0
  -10.0227   -2.9985  -22.0204 H   0  0  0  0  0  0  0  0  0  0  0  0
  -10.8879   -3.4799  -24.3353 H   0  0  0  0  0  0  0  0  0  0  0  0
  -10.5194   -1.8204  -24.7960 H   0  0  0  0  0  0  0  0  0  0  0  0
  -12.0245   -1.2165  -21.5851 H   0  0  0  0  0  0  0  0  0  0  0  0
  -12.9042   -0.0909  -22.6183 H   0  0  0  0  0  0  0  0  0  0  0  0
  -10.5786    0.3979  -23.7064 H   0  0  0  0  0  0  0  0  0  0  0  0
  -10.6475    0.7779  -21.9949 H   0  0  0  0  0  0  0  0  0  0  0  0
  1  2  2  0
  2  3  1  0
  3  4  1  0
  4  5  2  0
  5  6  1  0
  6  7  2  0
  7  8  1  0
  8  9  2  0
  9 10  1  0
 10 11  2  0
 11 12  1  0
 12 13  2  0
 12 14  1  0
 11 15  1  0
 10 16  1  0
  9 17  1  0
  7 18  1  0
  5 19  1  0
  3 20  1  0
  3 21  1  0
  2 22  1  0
 22 23  1  0
 23 24  1  0
 24 25  1  0
 25 26  1  0
 26 27  1  0
 27 28  1  0
 28 29  1  0
 28 30  1  0
 27 31  1  0
 27 32  1  0
 26 33  1  0
 26 34  1  0
 25 35  1  0
 35 36  1  0
 36 37  1  0
 36 38  1  0
 35 39  1  0
 35 40  1  0
 24 41  1  0
 24 42  1  0
 23 43  1  0
 23 44  1  0
 13  4  1  0
 36 22  1  0
 13  8  1  0
 28 25  1  0
M  END
>  <cnnaffinities>  (59) 
[4.42287, 4.37958, 4.37959, 4.37962, 4.37956, 4.8534, 4.85032, 4.85312, 4.86094]

>  <score>  (59) 
4.42287

>  <index>  (59) 
61

>  <Smiles>  (59) 
O=C(C(c1c(nc(c2c(c(c(c(c12)[H])[H])[H])[H])[H])[H])([H])[H])N1C(C(C2(C(C(C2([H])[H])([H])[H])([H])[H])C(C1([H])[H])([H])[H])([H])[H])([H])[H]

>  <h>  (59) 
<NA>

>  <Training>  (59) 
True

>  <Success>  (59) 
True

>  <enamine_searched>  (59) 
False

>  <enamine_id>  (59) 
nan

$$$$

     RDKit          3D

 44 47  0  0  0  0  0  0  0  0999 V2000
   -8.4558    0.7515  -21.4938 O   0  0  0  0  0  0  0  0  0  0  0  0
   -8.5281   -0.4354  -21.7696 C   0  0  0  0  0  0  0  0  0  0  0  0
   -7.4716   -1.4259  -21.2679 C   0  0  0  0  0  0  0  0  0  0  0  0
   -6.6063   -0.8335  -20.1901 C   0  0  0  0  0  0  0  0  0  0  0  0
   -6.9068   -1.0573  -18.8719 C   0  0  0  0  0  0  0  0  0  0  0  0
   -6.2192   -0.5648  -17.8083 N   0  0  0  0  0  0  0  0  0  0  0  0
   -5.1882    0.2021  -18.0722 C   0  0  0  0  0  0  0  0  0  0  0  0
   -4.7637    0.5325  -19.3866 C   0  0  0  0  0  0  0  0  0  0  0  0
   -3.6356    1.3640  -19.6160 C   0  0  0  0  0  0  0  0  0  0  0  0
   -3.2577    1.6759  -20.8925 C   0  0  0  0  0  0  0  0  0  0  0  0
   -3.9955    1.1808  -21.9902 C   0  0  0  0  0  0  0  0  0  0  0  0
   -5.0801    0.3575  -21.7943 C   0  0  0  0  0  0  0  0  0  0  0  0
   -5.4952    0.0137  -20.4802 C   0  0  0  0  0  0  0  0  0  0  0  0
   -5.6277   -0.0266  -22.6475 H   0  0  0  0  0  0  0  0  0  0  0  0
   -3.6766    1.4275  -22.9999 H   0  0  0  0  0  0  0  0  0  0  0  0
   -2.3886    2.3060  -21.0738 H   0  0  0  0  0  0  0  0  0  0  0  0
   -3.0915    1.7457  -18.7543 H   0  0  0  0  0  0  0  0  0  0  0  0
   -4.6285    0.6080  -17.2271 H   0  0  0  0  0  0  0  0  0  0  0  0
   -7.7564   -1.6867  -18.6047 H   0  0  0  0  0  0  0  0  0  0  0  0
   -8.0076   -2.2937  -20.8672 H   0  0  0  0  0  0  0  0  0  0  0  0
   -6.8790   -1.7935  -22.1175 H   0  0  0  0  0  0  0  0  0  0  0  0
   -9.5712   -0.9495  -22.4915 N   0  0  0  0  0  0  0  0  0  0  0  0
  -10.6082   -0.0043  -22.8887 C   0  0  0  0  0  0  0  0  0  0  0  0
  -11.9121   -0.7269  -23.2605 C   0  0  0  0  0  0  0  0  0  0  0  0
  -12.0993   -2.0904  -22.5696 C   0  0  0  0  0  0  0  0  0  0  0  0
  -13.3746   -2.7736  -23.0148 C   0  0  0  0  0  0  0  0  0  0  0  0
  -14.6781   -2.4319  -22.3773 C   0  0  0  0  0  0  0  0  0  0  0  0
  -14.0708   -3.7859  -22.1510 C   0  0  0  0  0  0  0  0  0  0  0  0
  -13.6259   -3.9974  -21.1839 H   0  0  0  0  0  0  0  0  0  0  0  0
  -14.5507   -4.6460  -22.6034 H   0  0  0  0  0  0  0  0  0  0  0  0
  -14.6868   -1.7274  -21.5521 H   0  0  0  0  0  0  0  0  0  0  0  0
  -15.5172   -2.3456  -23.0520 H   0  0  0  0  0  0  0  0  0  0  0  0
  -13.4303   -2.9580  -24.0860 H   0  0  0  0  0  0  0  0  0  0  0  0
  -10.8891   -3.0199  -22.7839 C   0  0  0  0  0  0  0  0  0  0  0  0
   -9.6287   -2.2380  -23.1722 C   0  0  0  0  0  0  0  0  0  0  0  0
   -9.6440   -2.0710  -24.2597 H   0  0  0  0  0  0  0  0  0  0  0  0
   -8.7245   -2.8101  -22.9599 H   0  0  0  0  0  0  0  0  0  0  0  0
  -10.7210   -3.6056  -21.8735 H   0  0  0  0  0  0  0  0  0  0  0  0
  -11.0938   -3.7500  -23.5757 H   0  0  0  0  0  0  0  0  0  0  0  0
  -12.1727   -1.8991  -21.4952 H   0  0  0  0  0  0  0  0  0  0  0  0
  -12.7679   -0.0660  -23.0559 H   0  0  0  0  0  0  0  0  0  0  0  0
  -11.8931   -0.8865  -24.3442 H   0  0  0  0  0  0  0  0  0  0  0  0
  -10.7418    0.6937  -22.0607 H   0  0  0  0  0  0  0  0  0  0  0  0
  -10.2448    0.5899  -23.7433 H   0  0  0  0  0  0  0  0  0  0  0  0
  1  2  2  0
  2  3  1  0
  3  4  1  0
  4  5  2  0
  5  6  1  0
  6  7  2  0
  7  8  1  0
  8  9  2  0
  9 10  1  0
 10 11  2  0
 11 12  1  0
 12 13  2  0
 12 14  1  0
 11 15  1  0
 10 16  1  0
  9 17  1  0
  7 18  1  0
  5 19  1  0
  3 20  1  0
  3 21  1  0
  2 22  1  0
 22 23  1  0
 23 24  1  0
 24 25  1  0
 25 26  1  0
 26 27  1  0
 27 28  1  0
 28 29  1  0
 28 30  1  0
 27 31  1  0
 27 32  1  0
 26 33  1  0
 25 34  1  0
 34 35  1  0
 35 36  1  0
 35 37  1  0
 34 38  1  0
 34 39  1  0
 25 40  1  0
 24 41  1  0
 24 42  1  0
 23 43  1  0
 23 44  1  0
 13  4  1  0
 35 22  1  0
 13  8  1  0
 28 26  1  0
M  END
>  <cnnaffinities>  (60) 
[4.58675, 4.7879, 4.20916, 4.4817, 4.53913, 4.48753, 4.25362]

>  <score>  (60) 
4.58675

>  <index>  (60) 
62

>  <Smiles>  (60) 
O=C(C(c1c(nc(c2c(c(c(c(c12)[H])[H])[H])[H])[H])[H])([H])[H])N1C(C(C(C2(C(C2([H])[H])([H])[H])[H])(C(C1([H])[H])([H])[H])[H])([H])[H])([H])[H]

>  <h>  (60) 
<NA>

>  <Training>  (60) 
True

>  <Success>  (60) 
True

>  <enamine_searched>  (60) 
False

>  <enamine_id>  (60) 
nan

$$$$

     RDKit          3D

 57 61  0  0  0  0  0  0  0  0999 V2000
   -7.3357    3.4262  -21.8494 C   0  0  0  0  0  0  0  0  0  0  0  0
   -8.1788    2.9573  -22.9356 N   0  0  0  0  0  0  0  0  0  0  0  0
   -7.6086    2.2531  -23.9413 C   0  0  0  0  0  0  0  0  0  0  0  0
   -6.3946    2.1247  -24.0467 O   0  0  0  0  0  0  0  0  0  0  0  0
   -8.5575    1.6304  -24.9711 C   0  0  0  0  0  0  0  0  0  0  0  0
   -9.2954    0.4871  -24.4672 N   0  0  0  0  0  0  0  0  0  0  0  0
   -8.5964   -0.7700  -24.2844 C   0  0  0  0  0  0  0  0  0  0  0  0
   -9.0100   -1.4768  -22.9637 C   0  0  2  0  0  0  0  0  0  0  0  0
   -8.4597   -0.6895  -21.7467 C   0  0  0  0  0  0  0  0  0  0  0  0
   -8.8686    0.3665  -21.3098 O   0  0  0  0  0  0  0  0  0  0  0  0
   -7.4032   -1.3867  -21.2072 N   0  0  0  0  0  0  0  0  0  0  0  0
   -6.6060   -0.8139  -20.1768 C   0  0  0  0  0  0  0  0  0  0  0  0
   -6.9105   -1.0478  -18.8621 C   0  0  0  0  0  0  0  0  0  0  0  0
   -6.2047   -0.5593  -17.8122 N   0  0  0  0  0  0  0  0  0  0  0  0
   -5.1702    0.2022  -18.0779 C   0  0  0  0  0  0  0  0  0  0  0  0
   -4.7369    0.5324  -19.3924 C   0  0  0  0  0  0  0  0  0  0  0  0
   -3.6118    1.3700  -19.6347 C   0  0  0  0  0  0  0  0  0  0  0  0
   -3.2334    1.6706  -20.9138 C   0  0  0  0  0  0  0  0  0  0  0  0
   -3.9681    1.1564  -22.0057 C   0  0  0  0  0  0  0  0  0  0  0  0
   -5.0494    0.3353  -21.7987 C   0  0  0  0  0  0  0  0  0  0  0  0
   -5.4758    0.0091  -20.4838 C   0  0  0  0  0  0  0  0  0  0  0  0
   -5.5868   -0.0700  -22.6515 H   0  0  0  0  0  0  0  0  0  0  0  0
   -3.6646    1.3903  -23.0206 H   0  0  0  0  0  0  0  0  0  0  0  0
   -2.3678    2.3004  -21.0996 H   0  0  0  0  0  0  0  0  0  0  0  0
   -3.0732    1.7707  -18.7787 H   0  0  0  0  0  0  0  0  0  0  0  0
   -4.6220    0.6088  -17.2265 H   0  0  0  0  0  0  0  0  0  0  0  0
   -7.7647   -1.6688  -18.6039 H   0  0  0  0  0  0  0  0  0  0  0  0
   -7.0770   -2.6172  -21.9018 C   0  0  0  0  0  0  0  0  0  0  0  0
   -8.3069   -2.8635  -22.8085 C   0  0  2  0  0  0  0  0  0  0  0  0
   -7.9376   -3.5858  -24.1056 C   0  0  0  0  0  0  0  0  0  0  0  0
   -7.4247   -4.8569  -23.7574 O   0  0  0  0  0  0  0  0  0  0  0  0
   -7.2078   -5.3291  -24.5712 H   0  0  0  0  0  0  0  0  0  0  0  0
   -7.1794   -3.0015  -24.6523 H   0  0  0  0  0  0  0  0  0  0  0  0
   -8.8226   -3.6835  -24.7548 H   0  0  0  0  0  0  0  0  0  0  0  0
   -8.9953   -3.5250  -22.2783 H   0  0  0  0  0  0  0  0  0  0  0  0
   -6.9110   -3.4293  -21.1858 H   0  0  0  0  0  0  0  0  0  0  0  0
   -6.1522   -2.5037  -22.4890 H   0  0  0  0  0  0  0  0  0  0  0  0
  -10.5292   -1.4891  -22.8932 C   0  0  0  0  0  0  0  0  0  0  0  0
  -11.1785   -2.3344  -21.9854 C   0  0  0  0  0  0  0  0  0  0  0  0
  -12.5583   -2.3309  -21.9003 C   0  0  0  0  0  0  0  0  0  0  0  0
  -13.3548   -3.3897  -20.7737 Cl  0  0  0  0  0  0  0  0  0  0  0  0
  -13.3319   -1.4759  -22.6857 C   0  0  0  0  0  0  0  0  0  0  0  0
  -12.6957   -0.5824  -23.5243 C   0  0  0  0  0  0  0  0  0  0  0  0
  -11.3031   -0.5594  -23.6031 C   0  0  0  0  0  0  0  0  0  0  0  0
  -10.6585    0.5598  -24.3659 C   0  0  0  0  0  0  0  0  0  0  0  0
  -11.3074    1.4916  -24.8206 O   0  0  0  0  0  0  0  0  0  0  0  0
  -13.2468    0.1431  -24.1144 H   0  0  0  0  0  0  0  0  0  0  0  0
  -14.4121   -1.4961  -22.6013 H   0  0  0  0  0  0  0  0  0  0  0  0
  -10.6172   -2.9734  -21.3129 H   0  0  0  0  0  0  0  0  0  0  0  0
   -7.5270   -0.5361  -24.2564 H   0  0  0  0  0  0  0  0  0  0  0  0
   -8.7995   -1.4456  -25.1321 H   0  0  0  0  0  0  0  0  0  0  0  0
   -7.9225    1.3444  -25.8170 H   0  0  0  0  0  0  0  0  0  0  0  0
   -9.3228    2.3337  -25.3091 H   0  0  0  0  0  0  0  0  0  0  0  0
   -9.1778    2.9016  -22.8060 H   0  0  0  0  0  0  0  0  0  0  0  0
   -6.6250    4.1790  -22.2092 H   0  0  0  0  0  0  0  0  0  0  0  0
   -7.9750    3.8781  -21.0903 H   0  0  0  0  0  0  0  0  0  0  0  0
   -6.7583    2.5892  -21.4281 H   0  0  0  0  0  0  0  0  0  0  0  0
  1  2  1  0
  2  3  1  0
  3  4  2  0
  3  5  1  0
  5  6  1  0
  6  7  1  0
  8  7  1  6
  8  9  1  0
  9 10  2  0
  9 11  1  0
 11 12  1  0
 12 13  2  0
 13 14  1  0
 14 15  2  0
 15 16  1  0
 16 17  2  0
 17 18  1  0
 18 19  2  0
 19 20  1  0
 20 21  2  0
 20 22  1  0
 19 23  1  0
 18 24  1  0
 17 25  1  0
 15 26  1  0
 13 27  1  0
 11 28  1  0
 28 29  1  0
 29 30  1  0
 30 31  1  0
 31 32  1  0
 30 33  1  0
 30 34  1  0
 29 35  1  1
 28 36  1  0
 28 37  1  0
  8 38  1  0
 38 39  2  0
 39 40  1  0
 40 41  1  0
 40 42  2  0
 42 43  1  0
 43 44  2  0
 44 45  1  0
 45 46  2  0
 43 47  1  0
 42 48  1  0
 39 49  1  0
  7 50  1  0
  7 51  1  0
  5 52  1  0
  5 53  1  0
  2 54  1  0
  1 55  1  0
  1 56  1  0
  1 57  1  0
 45  6  1  0
 29  8  1  0
 44 38  1  0
 21 12  1  0
 21 16  1  0
M  END
>  <cnnaffinities>  (61) 
[5.6857, 5.69423]

>  <score>  (61) 
5.6857

>  <index>  (61) 
63

>  <Smiles>  (61) 
C(N(C(=O)C(N1C([C@@]2(C(=O)N(c3c(nc(c4c(c(c(c(c34)[H])[H])[H])[H])[H])[H])C([C@@]2(C(O[H])([H])[H])[H])([H])[H])c2c(c(Cl)c(c(c2C1=O)[H])[H])[H])([H])[H])([H])[H])[H])([H])([H])[H]

>  <h>  (61) 
<NA>

>  <Training>  (61) 
True

>  <Success>  (61) 
True

>  <enamine_searched>  (61) 
False

>  <enamine_id>  (61) 
nan

$$$$

     RDKit          3D

 55 60  0  0  0  0  0  0  0  0999 V2000
  -10.4029   -0.9809  -23.3949 C   0  0  0  0  0  0  0  0  0  0  0  0
   -8.9847   -1.3871  -22.9934 C   0  0  1  0  0  0  0  0  0  0  0  0
   -8.3949   -0.4840  -21.8965 C   0  0  0  0  0  0  0  0  0  0  0  0
   -7.4176   -1.3385  -21.2447 N   0  0  0  0  0  0  0  0  0  0  0  0
   -6.6029   -0.8682  -20.1881 C   0  0  0  0  0  0  0  0  0  0  0  0
   -6.8926   -1.1717  -18.8831 C   0  0  0  0  0  0  0  0  0  0  0  0
   -6.2279   -0.6509  -17.8211 N   0  0  0  0  0  0  0  0  0  0  0  0
   -5.2337    0.1699  -18.0635 C   0  0  0  0  0  0  0  0  0  0  0  0
   -4.8017    0.5365  -19.3705 C   0  0  0  0  0  0  0  0  0  0  0  0
   -3.6954    1.3987  -19.5984 C   0  0  0  0  0  0  0  0  0  0  0  0
   -3.3374    1.7375  -20.8749 C   0  0  0  0  0  0  0  0  0  0  0  0
   -4.0602    1.2309  -21.9782 C   0  0  0  0  0  0  0  0  0  0  0  0
   -5.1157    0.3758  -21.7842 C   0  0  0  0  0  0  0  0  0  0  0  0
   -5.5137    0.0143  -20.4714 C   0  0  0  0  0  0  0  0  0  0  0  0
   -5.6489   -0.0459  -22.6291 H   0  0  0  0  0  0  0  0  0  0  0  0
   -3.7589    1.4951  -22.9874 H   0  0  0  0  0  0  0  0  0  0  0  0
   -2.4895    2.3931  -21.0541 H   0  0  0  0  0  0  0  0  0  0  0  0
   -3.1444    1.7795  -18.7429 H   0  0  0  0  0  0  0  0  0  0  0  0
   -4.7105    0.5830  -17.2003 H   0  0  0  0  0  0  0  0  0  0  0  0
   -7.7073   -1.8531  -18.6431 H   0  0  0  0  0  0  0  0  0  0  0  0
   -7.6520   -2.6818  -21.4452 C   0  0  0  0  0  0  0  0  0  0  0  0
   -7.0215   -3.5687  -20.9048 O   0  0  0  0  0  0  0  0  0  0  0  0
   -8.8205   -2.8441  -22.4355 C   0  0  1  0  0  0  0  0  0  0  0  0
  -10.0626   -3.2788  -21.6212 C   0  0  0  0  0  0  0  0  0  0  0  0
  -11.1705   -3.7346  -22.4547 N   0  0  0  0  0  0  0  0  0  0  0  0
  -12.5541   -3.6210  -22.0060 C   0  0  0  0  0  0  0  0  0  0  0  0
  -13.3720   -2.5219  -22.6156 C   0  0  0  0  0  0  0  0  0  0  0  0
  -13.8837   -2.5949  -23.8796 N   0  0  0  0  0  0  0  0  0  0  0  0
  -14.6329   -1.5131  -23.9512 C   0  0  0  0  0  0  0  0  0  0  0  0
  -14.5676   -0.8325  -22.7987 N   0  0  0  0  0  0  0  0  0  0  0  0
  -13.7667   -1.4729  -21.9218 N   0  0  0  0  0  0  0  0  0  0  0  0
  -15.0531    0.0012  -22.5006 H   0  0  0  0  0  0  0  0  0  0  0  0
  -15.2181   -1.1855  -24.8008 H   0  0  0  0  0  0  0  0  0  0  0  0
  -12.5849   -3.4993  -20.9221 H   0  0  0  0  0  0  0  0  0  0  0  0
  -13.0634   -4.5394  -22.3110 H   0  0  0  0  0  0  0  0  0  0  0  0
  -10.9433   -4.5827  -23.5090 C   0  0  0  0  0  0  0  0  0  0  0  0
  -11.8545   -5.1747  -24.0677 O   0  0  0  0  0  0  0  0  0  0  0  0
   -9.5293   -4.7367  -23.9581 C   0  0  0  0  0  0  0  0  0  0  0  0
   -9.2579   -5.7250  -24.9059 C   0  0  0  0  0  0  0  0  0  0  0  0
   -7.9803   -5.9113  -25.3971 C   0  0  0  0  0  0  0  0  0  0  0  0
   -6.9818   -5.0666  -24.9317 C   0  0  0  0  0  0  0  0  0  0  0  0
   -5.7351   -5.2168  -25.4127 F   0  0  0  0  0  0  0  0  0  0  0  0
   -7.2201   -4.0880  -23.9860 C   0  0  0  0  0  0  0  0  0  0  0  0
   -8.5142   -3.9066  -23.4761 C   0  0  0  0  0  0  0  0  0  0  0  0
   -6.3807   -3.5038  -23.6257 H   0  0  0  0  0  0  0  0  0  0  0  0
   -7.7396   -6.6983  -26.1069 H   0  0  0  0  0  0  0  0  0  0  0  0
  -10.0733   -6.3550  -25.2439 H   0  0  0  0  0  0  0  0  0  0  0  0
   -9.7484   -4.0751  -20.9433 H   0  0  0  0  0  0  0  0  0  0  0  0
  -10.3891   -2.4324  -21.0079 H   0  0  0  0  0  0  0  0  0  0  0  0
   -7.9229    0.4178  -22.2985 H   0  0  0  0  0  0  0  0  0  0  0  0
   -9.1625   -0.1506  -21.1775 H   0  0  0  0  0  0  0  0  0  0  0  0
   -8.3255   -1.3349  -23.8704 H   0  0  0  0  0  0  0  0  0  0  0  0
  -11.0666   -0.9207  -22.5241 H   0  0  0  0  0  0  0  0  0  0  0  0
  -10.4118   -0.0009  -23.8815 H   0  0  0  0  0  0  0  0  0  0  0  0
  -10.8377   -1.7165  -24.0782 H   0  0  0  0  0  0  0  0  0  0  0  0
  1  2  1  0
  2  3  1  0
  3  4  1  0
  4  5  1  0
  5  6  2  0
  6  7  1  0
  7  8  2  0
  8  9  1  0
  9 10  2  0
 10 11  1  0
 11 12  2  0
 12 13  1  0
 13 14  2  0
 13 15  1  0
 12 16  1  0
 11 17  1  0
 10 18  1  0
  8 19  1  0
  6 20  1  0
  4 21  1  0
 21 22  2  0
 21 23  1  0
 23 24  1  1
 24 25  1  0
 25 26  1  0
 26 27  1  0
 27 28  1  0
 28 29  2  0
 29 30  1  0
 30 31  1  0
 30 32  1  0
 29 33  1  0
 26 34  1  0
 26 35  1  0
 25 36  1  0
 36 37  2  0
 36 38  1  0
 38 39  2  0
 39 40  1  0
 40 41  2  0
 41 42  1  0
 41 43  1  0
 43 44  2  0
 43 45  1  0
 40 46  1  0
 39 47  1  0
 24 48  1  0
 24 49  1  0
  3 50  1  0
  3 51  1  0
  2 52  1  6
  1 53  1  0
  1 54  1  0
  1 55  1  0
 23  2  1  0
 31 27  2  0
 44 38  1  0
 14  5  1  0
 44 23  1  0
 14  9  1  0
M  END
>  <cnnaffinities>  (62) 
[6.40197, 6.29917]

>  <score>  (62) 
6.40197

>  <index>  (62) 
64

>  <Smiles>  (62) 
C([C@]1(C(N(c2c(nc(c3c(c(c(c(c23)[H])[H])[H])[H])[H])[H])C(=O)[C@]21C(N(C(c1nc(n(n1)[H])[H])([H])[H])C(=O)c1c(c(c(F)c(c21)[H])[H])[H])([H])[H])([H])[H])[H])([H])([H])[H]

>  <h>  (62) 
<NA>

>  <Training>  (62) 
True

>  <Success>  (62) 
True

>  <enamine_searched>  (62) 
False

>  <enamine_id>  (62) 
nan

$$$$

     RDKit          3D

 55 60  0  0  0  0  0  0  0  0999 V2000
  -10.4049   -1.0395  -23.3543 C   0  0  0  0  0  0  0  0  0  0  0  0
   -8.9751   -1.4053  -22.9827 C   0  0  1  0  0  0  0  0  0  0  0  0
   -8.3848   -0.4920  -21.8968 C   0  0  0  0  0  0  0  0  0  0  0  0
   -7.4028   -1.3443  -21.2472 N   0  0  0  0  0  0  0  0  0  0  0  0
   -6.5990   -0.8674  -20.1896 C   0  0  0  0  0  0  0  0  0  0  0  0
   -6.8986   -1.1646  -18.8865 C   0  0  0  0  0  0  0  0  0  0  0  0
   -6.2354   -0.6432  -17.8240 N   0  0  0  0  0  0  0  0  0  0  0  0
   -5.2387    0.1731  -18.0693 C   0  0  0  0  0  0  0  0  0  0  0  0
   -4.8030    0.5328  -19.3767 C   0  0  0  0  0  0  0  0  0  0  0  0
   -3.6901    1.3830  -19.6054 C   0  0  0  0  0  0  0  0  0  0  0  0
   -3.3301    1.7200  -20.8809 C   0  0  0  0  0  0  0  0  0  0  0  0
   -4.0583    1.2218  -21.9864 C   0  0  0  0  0  0  0  0  0  0  0  0
   -5.1127    0.3671  -21.7940 C   0  0  0  0  0  0  0  0  0  0  0  0
   -5.5127    0.0112  -20.4796 C   0  0  0  0  0  0  0  0  0  0  0  0
   -5.6419   -0.0583  -22.6419 H   0  0  0  0  0  0  0  0  0  0  0  0
   -3.7639    1.4988  -22.9944 H   0  0  0  0  0  0  0  0  0  0  0  0
   -2.4800    2.3721  -21.0592 H   0  0  0  0  0  0  0  0  0  0  0  0
   -3.1404    1.7621  -18.7475 H   0  0  0  0  0  0  0  0  0  0  0  0
   -4.7137    0.5934  -17.2092 H   0  0  0  0  0  0  0  0  0  0  0  0
   -7.7152   -1.8449  -18.6503 H   0  0  0  0  0  0  0  0  0  0  0  0
   -7.6242   -2.6915  -21.4495 C   0  0  0  0  0  0  0  0  0  0  0  0
   -6.9767   -3.5827  -20.9410 O   0  0  0  0  0  0  0  0  0  0  0  0
   -8.7985   -2.8597  -22.4185 C   0  0  1  0  0  0  0  0  0  0  0  0
  -10.0248   -3.3212  -21.5850 C   0  0  0  0  0  0  0  0  0  0  0  0
  -11.1318   -3.7615  -22.4093 N   0  0  0  0  0  0  0  0  0  0  0  0
  -12.5055   -3.6597  -21.9424 C   0  0  0  0  0  0  0  0  0  0  0  0
  -13.3276   -2.5417  -22.4948 C   0  0  0  0  0  0  0  0  0  0  0  0
  -14.0338   -2.5448  -23.6404 C   0  0  0  0  0  0  0  0  0  0  0  0
  -14.7580   -1.3937  -23.7064 O   0  0  0  0  0  0  0  0  0  0  0  0
  -14.4606   -0.7512  -22.5613 C   0  0  0  0  0  0  0  0  0  0  0  0
  -13.6294   -1.3779  -21.7926 N   0  0  0  0  0  0  0  0  0  0  0  0
  -14.9475    0.2033  -22.3974 H   0  0  0  0  0  0  0  0  0  0  0  0
  -14.1474   -3.2470  -24.4500 H   0  0  0  0  0  0  0  0  0  0  0  0
  -12.5239   -3.5843  -20.8577 H   0  0  0  0  0  0  0  0  0  0  0  0
  -12.9878   -4.5911  -22.2459 H   0  0  0  0  0  0  0  0  0  0  0  0
  -10.9268   -4.5028  -23.5376 C   0  0  0  0  0  0  0  0  0  0  0  0
  -11.8651   -4.9668  -24.1687 O   0  0  0  0  0  0  0  0  0  0  0  0
   -9.5140   -4.7044  -23.9753 C   0  0  0  0  0  0  0  0  0  0  0  0
   -9.2516   -5.7062  -24.9119 C   0  0  0  0  0  0  0  0  0  0  0  0
   -7.9710   -5.9003  -25.4006 C   0  0  0  0  0  0  0  0  0  0  0  0
   -6.9669   -5.0476  -24.9469 C   0  0  0  0  0  0  0  0  0  0  0  0
   -5.7220   -5.1957  -25.4302 F   0  0  0  0  0  0  0  0  0  0  0  0
   -7.1878   -4.0797  -23.9838 C   0  0  0  0  0  0  0  0  0  0  0  0
   -8.4853   -3.9001  -23.4766 C   0  0  0  0  0  0  0  0  0  0  0  0
   -6.3441   -3.5191  -23.5881 H   0  0  0  0  0  0  0  0  0  0  0  0
   -7.7303   -6.6960  -26.1023 H   0  0  0  0  0  0  0  0  0  0  0  0
  -10.0707   -6.3439  -25.2354 H   0  0  0  0  0  0  0  0  0  0  0  0
  -10.3830   -2.4909  -20.9741 H   0  0  0  0  0  0  0  0  0  0  0  0
   -9.6989   -4.1107  -20.9010 H   0  0  0  0  0  0  0  0  0  0  0  0
   -9.1587   -0.1583  -21.1857 H   0  0  0  0  0  0  0  0  0  0  0  0
   -7.9234    0.4160  -22.2994 H   0  0  0  0  0  0  0  0  0  0  0  0
   -8.3288   -1.3404  -23.8701 H   0  0  0  0  0  0  0  0  0  0  0  0
  -10.4717   -0.0688  -23.8490 H   0  0  0  0  0  0  0  0  0  0  0  0
  -10.8326   -1.7997  -24.0137 H   0  0  0  0  0  0  0  0  0  0  0  0
  -11.0275   -0.9946  -22.4559 H   0  0  0  0  0  0  0  0  0  0  0  0
  1  2  1  0
  2  3  1  0
  3  4  1  0
  4  5  1  0
  5  6  2  0
  6  7  1  0
  7  8  2  0
  8  9  1  0
  9 10  2  0
 10 11  1  0
 11 12  2  0
 12 13  1  0
 13 14  2  0
 13 15  1  0
 12 16  1  0
 11 17  1  0
 10 18  1  0
  8 19  1  0
  6 20  1  0
  4 21  1  0
 21 22  2  0
 21 23  1  0
 23 24  1  1
 24 25  1  0
 25 26  1  0
 26 27  1  0
 27 28  2  0
 28 29  1  0
 29 30  1  0
 30 31  2  0
 30 32  1  0
 28 33  1  0
 26 34  1  0
 26 35  1  0
 25 36  1  0
 36 37  2  0
 36 38  1  0
 38 39  2  0
 39 40  1  0
 40 41  2  0
 41 42  1  0
 41 43  1  0
 43 44  2  0
 43 45  1  0
 40 46  1  0
 39 47  1  0
 24 48  1  0
 24 49  1  0
  3 50  1  0
  3 51  1  0
  2 52  1  6
  1 53  1  0
  1 54  1  0
  1 55  1  0
 23  2  1  0
 31 27  1  0
 44 38  1  0
 14  5  1  0
 44 23  1  0
 14  9  1  0
M  END
>  <cnnaffinities>  (63) 
[6.41807]

>  <score>  (63) 
6.41807

>  <index>  (63) 
65

>  <Smiles>  (63) 
C([C@]1(C(N(c2c(nc(c3c(c(c(c(c23)[H])[H])[H])[H])[H])[H])C(=O)[C@]21C(N(C(c1c(oc(n1)[H])[H])([H])[H])C(=O)c1c(c(c(F)c(c21)[H])[H])[H])([H])[H])([H])[H])[H])([H])([H])[H]

>  <h>  (63) 
<NA>

>  <Training>  (63) 
True

>  <Success>  (63) 
True

>  <enamine_searched>  (63) 
False

>  <enamine_id>  (63) 
nan

$$$$

     RDKit          3D

 44 47  0  0  0  0  0  0  0  0999 V2000
   -9.8425    1.4057  -24.4121 C   0  0  0  0  0  0  0  0  0  0  0  0
  -10.9828    0.4970  -23.9762 C   0  0  0  0  0  0  0  0  0  0  0  0
  -10.7917   -0.1461  -22.5933 C   0  0  1  0  0  0  0  0  0  0  0  0
  -12.0087   -0.9692  -22.2418 C   0  0  0  0  0  0  0  0  0  0  0  0
  -13.3583   -0.4949  -22.1086 C   0  0  0  0  0  0  0  0  0  0  0  0
  -14.2144   -1.5029  -21.7821 C   0  0  0  0  0  0  0  0  0  0  0  0
  -13.4162   -3.0221  -21.6350 S   0  0  0  0  0  0  0  0  0  0  0  0
  -11.8984   -2.3156  -22.0459 C   0  0  0  0  0  0  0  0  0  0  0  0
  -10.6649   -3.1531  -22.2487 C   0  0  0  0  0  0  0  0  0  0  0  0
   -9.6596   -2.2937  -23.0110 C   0  0  0  0  0  0  0  0  0  0  0  0
   -9.5801   -0.9558  -22.4505 N   0  0  0  0  0  0  0  0  0  0  0  0
   -8.5142   -0.4210  -21.7687 C   0  0  0  0  0  0  0  0  0  0  0  0
   -8.4293    0.7704  -21.5246 O   0  0  0  0  0  0  0  0  0  0  0  0
   -7.4572   -1.4131  -21.2642 C   0  0  0  0  0  0  0  0  0  0  0  0
   -6.5909   -0.8333  -20.1819 C   0  0  0  0  0  0  0  0  0  0  0  0
   -6.8951   -1.0559  -18.8645 C   0  0  0  0  0  0  0  0  0  0  0  0
   -6.2101   -0.5598  -17.8015 N   0  0  0  0  0  0  0  0  0  0  0  0
   -5.1793    0.2070  -18.0680 C   0  0  0  0  0  0  0  0  0  0  0  0
   -4.7525    0.5355  -19.3817 C   0  0  0  0  0  0  0  0  0  0  0  0
   -3.6286    1.3680  -19.6141 C   0  0  0  0  0  0  0  0  0  0  0  0
   -3.2520    1.6799  -20.8926 C   0  0  0  0  0  0  0  0  0  0  0  0
   -3.9918    1.1814  -21.9886 C   0  0  0  0  0  0  0  0  0  0  0  0
   -5.0720    0.3579  -21.7903 C   0  0  0  0  0  0  0  0  0  0  0  0
   -5.4822    0.0132  -20.4749 C   0  0  0  0  0  0  0  0  0  0  0  0
   -5.6231   -0.0283  -22.6417 H   0  0  0  0  0  0  0  0  0  0  0  0
   -3.6728    1.4260  -22.9989 H   0  0  0  0  0  0  0  0  0  0  0  0
   -2.3851    2.3092  -21.0750 H   0  0  0  0  0  0  0  0  0  0  0  0
   -3.0854    1.7533  -18.7543 H   0  0  0  0  0  0  0  0  0  0  0  0
   -4.6229    0.6130  -17.2215 H   0  0  0  0  0  0  0  0  0  0  0  0
   -7.7472   -1.6818  -18.5970 H   0  0  0  0  0  0  0  0  0  0  0  0
   -7.9938   -2.2864  -20.8701 H   0  0  0  0  0  0  0  0  0  0  0  0
   -6.8681   -1.7739  -22.1180 H   0  0  0  0  0  0  0  0  0  0  0  0
   -8.6685   -2.7452  -23.0523 H   0  0  0  0  0  0  0  0  0  0  0  0
  -10.0104   -2.1842  -24.0434 H   0  0  0  0  0  0  0  0  0  0  0  0
  -10.2478   -3.4841  -21.2852 H   0  0  0  0  0  0  0  0  0  0  0  0
  -10.9039   -4.0669  -22.8130 H   0  0  0  0  0  0  0  0  0  0  0  0
  -15.2684   -1.4253  -21.5988 H   0  0  0  0  0  0  0  0  0  0  0  0
  -13.6717    0.5441  -22.2595 H   0  0  0  0  0  0  0  0  0  0  0  0
  -10.6404    0.6842  -21.8945 H   0  0  0  0  0  0  0  0  0  0  0  0
  -11.9159    1.0666  -23.8884 H   0  0  0  0  0  0  0  0  0  0  0  0
  -11.1898   -0.2834  -24.7190 H   0  0  0  0  0  0  0  0  0  0  0  0
   -8.9052    0.8527  -24.5268 H   0  0  0  0  0  0  0  0  0  0  0  0
  -10.0667    1.8875  -25.3693 H   0  0  0  0  0  0  0  0  0  0  0  0
   -9.6694    2.1939  -23.6723 H   0  0  0  0  0  0  0  0  0  0  0  0
  1  2  1  0
  2  3  1  0
  3  4  1  0
  4  5  1  0
  5  6  2  0
  6  7  1  0
  7  8  1  0
  8  9  1  0
  9 10  1  0
 10 11  1  0
 11 12  1  0
 12 13  2  0
 12 14  1  0
 14 15  1  0
 15 16  2  0
 16 17  1  0
 17 18  2  0
 18 19  1  0
 19 20  2  0
 20 21  1  0
 21 22  2  0
 22 23  1  0
 23 24  2  0
 23 25  1  0
 22 26  1  0
 21 27  1  0
 20 28  1  0
 18 29  1  0
 16 30  1  0
 14 31  1  0
 14 32  1  0
 10 33  1  0
 10 34  1  0
  9 35  1  0
  9 36  1  0
  6 37  1  0
  5 38  1  0
  3 39  1  1
  2 40  1  0
  2 41  1  0
  1 42  1  0
  1 43  1  0
  1 44  1  0
 11  3  1  0
 24 15  1  0
  8  4  2  0
 24 19  1  0
M  END
>  <cnnaffinities>  (64) 
[5.02621]

>  <score>  (64) 
5.02621

>  <index>  (64) 
66

>  <Smiles>  (64) 
C(C([C@]1(c2c(c(sc2C(C(N1C(=O)C(c1c(nc(c2c(c(c(c(c12)[H])[H])[H])[H])[H])[H])([H])[H])([H])[H])([H])[H])[H])[H])[H])([H])[H])([H])([H])[H]

>  <h>  (64) 
<NA>

>  <Training>  (64) 
True

>  <Success>  (64) 
True

>  <enamine_searched>  (64) 
False

>  <enamine_id>  (64) 
nan

$$$$

     RDKit          3D

 58 63  0  0  0  0  0  0  0  0999 V2000
   -8.2787   -7.2188  -27.4848 C   0  0  0  0  0  0  0  0  0  0  0  0
   -7.7468   -5.8504  -27.1849 C   0  0  0  0  0  0  0  0  0  0  0  0
   -8.4661   -4.6282  -27.3263 C   0  0  0  0  0  0  0  0  0  0  0  0
   -7.5854   -3.6815  -26.9255 C   0  0  0  0  0  0  0  0  0  0  0  0
   -7.7337   -2.1967  -26.7918 C   0  0  0  0  0  0  0  0  0  0  0  0
   -8.5876   -1.7956  -25.6804 N   0  0  0  0  0  0  0  0  0  0  0  0
   -7.9642   -1.2523  -24.4825 C   0  0  0  0  0  0  0  0  0  0  0  0
   -8.7442   -1.5431  -23.1794 C   0  0  2  0  0  0  0  0  0  0  0  0
   -8.1414   -0.6161  -22.0971 C   0  0  0  0  0  0  0  0  0  0  0  0
   -8.2363    0.5939  -22.0326 O   0  0  0  0  0  0  0  0  0  0  0  0
   -7.4182   -1.3774  -21.2054 N   0  0  0  0  0  0  0  0  0  0  0  0
   -6.6157   -0.8021  -20.1859 C   0  0  0  0  0  0  0  0  0  0  0  0
   -6.8997   -1.0609  -18.8684 C   0  0  0  0  0  0  0  0  0  0  0  0
   -6.2013   -0.5684  -17.8179 N   0  0  0  0  0  0  0  0  0  0  0  0
   -5.1731    0.2026  -18.0833 C   0  0  0  0  0  0  0  0  0  0  0  0
   -4.7429    0.5288  -19.3997 C   0  0  0  0  0  0  0  0  0  0  0  0
   -3.6090    1.3578  -19.6269 C   0  0  0  0  0  0  0  0  0  0  0  0
   -3.2122    1.6475  -20.9035 C   0  0  0  0  0  0  0  0  0  0  0  0
   -3.9333    1.1249  -21.9993 C   0  0  0  0  0  0  0  0  0  0  0  0
   -5.0117    0.3024  -21.8053 C   0  0  0  0  0  0  0  0  0  0  0  0
   -5.4722    0.0080  -20.4915 C   0  0  0  0  0  0  0  0  0  0  0  0
   -5.5153   -0.1335  -22.6606 H   0  0  0  0  0  0  0  0  0  0  0  0
   -3.5960    1.3368  -23.0098 H   0  0  0  0  0  0  0  0  0  0  0  0
   -2.3365    2.2654  -21.0862 H   0  0  0  0  0  0  0  0  0  0  0  0
   -3.0768    1.7571  -18.7674 H   0  0  0  0  0  0  0  0  0  0  0  0
   -4.6282    0.6116  -17.2324 H   0  0  0  0  0  0  0  0  0  0  0  0
   -7.7490   -1.6912  -18.6097 H   0  0  0  0  0  0  0  0  0  0  0  0
   -7.3935   -2.7919  -21.5227 C   0  0  0  0  0  0  0  0  0  0  0  0
   -8.5230   -2.9658  -22.5501 C   0  0  2  0  0  0  0  0  0  0  0  0
   -8.2594   -4.1077  -23.5252 C   0  0  0  0  0  0  0  0  0  0  0  0
   -7.2975   -3.9648  -24.0279 H   0  0  0  0  0  0  0  0  0  0  0  0
   -9.0379   -4.1680  -24.2934 H   0  0  0  0  0  0  0  0  0  0  0  0
   -8.2197   -5.0675  -23.0000 H   0  0  0  0  0  0  0  0  0  0  0  0
   -9.4502   -3.1722  -21.9959 H   0  0  0  0  0  0  0  0  0  0  0  0
   -7.5534   -3.3806  -20.6171 H   0  0  0  0  0  0  0  0  0  0  0  0
   -6.4191   -3.0901  -21.9399 H   0  0  0  0  0  0  0  0  0  0  0  0
  -10.2130   -1.2652  -23.4379 C   0  0  0  0  0  0  0  0  0  0  0  0
  -11.0478   -0.9679  -22.3546 C   0  0  0  0  0  0  0  0  0  0  0  0
  -12.3971   -0.7731  -22.5871 C   0  0  0  0  0  0  0  0  0  0  0  0
  -13.2435   -0.4520  -21.5979 F   0  0  0  0  0  0  0  0  0  0  0  0
  -12.9569   -0.9078  -23.8483 C   0  0  0  0  0  0  0  0  0  0  0  0
  -12.1440   -1.2413  -24.9117 C   0  0  0  0  0  0  0  0  0  0  0  0
  -10.7729   -1.4085  -24.7132 C   0  0  0  0  0  0  0  0  0  0  0  0
   -9.9399   -1.7918  -25.8917 C   0  0  0  0  0  0  0  0  0  0  0  0
  -10.4406   -2.0965  -26.9683 O   0  0  0  0  0  0  0  0  0  0  0  0
  -12.5373   -1.3848  -25.9125 H   0  0  0  0  0  0  0  0  0  0  0  0
  -14.0237   -0.7481  -23.9356 H   0  0  0  0  0  0  0  0  0  0  0  0
  -10.6188   -0.8901  -21.3628 H   0  0  0  0  0  0  0  0  0  0  0  0
   -6.9658   -1.7018  -24.4194 H   0  0  0  0  0  0  0  0  0  0  0  0
   -7.8688   -0.1565  -24.5505 H   0  0  0  0  0  0  0  0  0  0  0  0
   -8.2092   -1.8201  -27.7021 H   0  0  0  0  0  0  0  0  0  0  0  0
   -6.7561   -1.7282  -26.6668 H   0  0  0  0  0  0  0  0  0  0  0  0
   -6.4258   -4.2617  -26.5853 O   0  0  0  0  0  0  0  0  0  0  0  0
   -6.5268   -5.6381  -26.7517 N   0  0  0  0  0  0  0  0  0  0  0  0
   -9.4842   -4.4741  -27.6497 H   0  0  0  0  0  0  0  0  0  0  0  0
   -9.3470   -7.2550  -27.2468 H   0  0  0  0  0  0  0  0  0  0  0  0
   -7.7619   -7.9948  -26.9142 H   0  0  0  0  0  0  0  0  0  0  0  0
   -8.1780   -7.4354  -28.5538 H   0  0  0  0  0  0  0  0  0  0  0  0
  1  2  1  0
  2  3  1  0
  3  4  2  0
  4  5  1  0
  5  6  1  0
  6  7  1  0
  8  7  1  6
  8  9  1  0
  9 10  2  0
  9 11  1  0
 11 12  1  0
 12 13  2  0
 13 14  1  0
 14 15  2  0
 15 16  1  0
 16 17  2  0
 17 18  1  0
 18 19  2  0
 19 20  1  0
 20 21  2  0
 20 22  1  0
 19 23  1  0
 18 24  1  0
 17 25  1  0
 15 26  1  0
 13 27  1  0
 11 28  1  0
 28 29  1  0
 29 30  1  0
 30 31  1  0
 30 32  1  0
 30 33  1  0
 29 34  1  1
 28 35  1  0
 28 36  1  0
  8 37  1  0
 37 38  2  0
 38 39  1  0
 39 40  1  0
 39 41  2  0
 41 42  1  0
 42 43  2  0
 43 44  1  0
 44 45  2  0
 42 46  1  0
 41 47  1  0
 38 48  1  0
  7 49  1  0
  7 50  1  0
  5 51  1  0
  5 52  1  0
  4 53  1  0
 53 54  1  0
  3 55  1  0
  1 56  1  0
  1 57  1  0
  1 58  1  0
 54  2  2  0
 44  6  1  0
 29  8  1  0
 43 37  1  0
 21 12  1  0
 21 16  1  0
M  END
>  <cnnaffinities>  (65) 
[6.12458]

>  <score>  (65) 
6.12458

>  <index>  (65) 
67

>  <Smiles>  (65) 
C(c1c(c(C(N2C([C@@]3(C(=O)N(c4c(nc(c5c(c(c(c(c45)[H])[H])[H])[H])[H])[H])C([C@@]3(C([H])([H])[H])[H])([H])[H])c3c(c(F)c(c(c3C2=O)[H])[H])[H])([H])[H])([H])[H])on1)[H])([H])([H])[H]

>  <h>  (65) 
<NA>

>  <Training>  (65) 
True

>  <Success>  (65) 
True

>  <enamine_searched>  (65) 
False

>  <enamine_id>  (65) 
nan

$$$$

     RDKit          3D

 65 70  0  0  0  0  0  0  0  0999 V2000
   -9.1942    0.1282  -20.7800 O   0  0  0  0  0  0  0  0  0  0  0  0
   -8.4182   -0.2397  -21.6478 C   0  0  0  0  0  0  0  0  0  0  0  0
   -7.4592   -1.3704  -21.3027 C   0  0  0  0  0  0  0  0  0  0  0  0
   -6.5640   -0.8730  -20.1935 C   0  0  0  0  0  0  0  0  0  0  0  0
   -6.8985   -1.0808  -18.8814 C   0  0  0  0  0  0  0  0  0  0  0  0
   -6.2289   -0.5778  -17.8160 N   0  0  0  0  0  0  0  0  0  0  0  0
   -5.1968    0.1919  -18.0742 C   0  0  0  0  0  0  0  0  0  0  0  0
   -4.7520    0.5237  -19.3821 C   0  0  0  0  0  0  0  0  0  0  0  0
   -3.6506    1.3922  -19.6090 C   0  0  0  0  0  0  0  0  0  0  0  0
   -3.2796    1.7196  -20.8833 C   0  0  0  0  0  0  0  0  0  0  0  0
   -3.9962    1.2076  -21.9846 C   0  0  0  0  0  0  0  0  0  0  0  0
   -5.0550    0.3485  -21.7921 C   0  0  0  0  0  0  0  0  0  0  0  0
   -5.4615   -0.0168  -20.4807 C   0  0  0  0  0  0  0  0  0  0  0  0
   -5.5861   -0.0208  -22.6614 H   0  0  0  0  0  0  0  0  0  0  0  0
   -3.6924    1.4738  -22.9937 H   0  0  0  0  0  0  0  0  0  0  0  0
   -2.4315    2.3776  -21.0585 H   0  0  0  0  0  0  0  0  0  0  0  0
   -3.1209    1.7940  -18.7484 H   0  0  0  0  0  0  0  0  0  0  0  0
   -4.6609    0.6038  -17.2197 H   0  0  0  0  0  0  0  0  0  0  0  0
   -7.7768   -1.6783  -18.6369 H   0  0  0  0  0  0  0  0  0  0  0  0
   -6.8874   -1.7085  -22.1656 H   0  0  0  0  0  0  0  0  0  0  0  0
   -8.0761   -2.1978  -20.9369 H   0  0  0  0  0  0  0  0  0  0  0  0
   -8.3165    0.4108  -22.8708 N   0  0  0  0  0  0  0  0  0  0  0  0
   -8.2066   -0.3304  -24.1317 C   0  0  0  0  0  0  0  0  0  0  0  0
   -9.4853   -1.0811  -24.4687 C   0  0  0  0  0  0  0  0  0  0  0  0
  -10.5346   -0.4828  -25.1715 C   0  0  0  0  0  0  0  0  0  0  0  0
  -11.8016   -1.0658  -25.1552 C   0  0  0  0  0  0  0  0  0  0  0  0
  -12.0153   -2.2640  -24.4914 C   0  0  0  0  0  0  0  0  0  0  0  0
  -10.9348   -2.9409  -23.9478 C   0  0  0  0  0  0  0  0  0  0  0  0
  -11.1628   -4.5259  -23.2551 Cl  0  0  0  0  0  0  0  0  0  0  0  0
   -9.6708   -2.3613  -23.9383 C   0  0  0  0  0  0  0  0  0  0  0  0
   -8.8340   -2.8993  -23.5024 H   0  0  0  0  0  0  0  0  0  0  0  0
  -13.0102   -2.6814  -24.4391 H   0  0  0  0  0  0  0  0  0  0  0  0
  -12.6684   -0.6248  -25.6283 H   0  0  0  0  0  0  0  0  0  0  0  0
  -10.3913    0.4376  -25.7365 H   0  0  0  0  0  0  0  0  0  0  0  0
   -7.9394    0.3750  -24.9245 H   0  0  0  0  0  0  0  0  0  0  0  0
   -7.3945   -1.0538  -24.0243 H   0  0  0  0  0  0  0  0  0  0  0  0
   -8.7146    1.8186  -22.8505 C   0  0  2  0  0  0  0  0  0  0  0  0
  -10.2128    2.1496  -22.6425 C   0  0  0  0  0  0  0  0  0  0  0  0
  -10.3005    3.6367  -23.0897 C   0  0  0  0  0  0  0  0  0  0  0  0
   -8.8611    3.9739  -23.4953 C   0  0  2  0  0  0  0  0  0  0  0  0
   -8.3949    2.6508  -24.0955 C   0  0  0  0  0  0  0  0  0  0  0  0
   -7.3405    2.6274  -24.3860 H   0  0  0  0  0  0  0  0  0  0  0  0
   -9.0232    2.3760  -24.9459 H   0  0  0  0  0  0  0  0  0  0  0  0
   -8.0382    4.0655  -22.1890 N   0  0  2  0  0  4  0  0  0  0  0  0
   -6.6877    4.7057  -22.3051 C   0  0  0  0  0  0  0  0  0  0  0  0
   -6.7594    6.2236  -22.3320 C   0  0  0  0  0  0  0  0  0  0  0  0
   -6.7982    6.9451  -20.9734 C   0  0  0  0  0  0  0  0  0  0  0  0
   -5.5129    7.5387  -21.1846 O   0  0  0  0  0  0  0  0  0  0  0  0
   -5.4107    6.9388  -22.4809 C   0  0  0  0  0  0  0  0  0  0  0  0
   -4.5314    6.2880  -22.5615 H   0  0  0  0  0  0  0  0  0  0  0  0
   -5.3723    7.6903  -23.2770 H   0  0  0  0  0  0  0  0  0  0  0  0
   -7.5645    7.7122  -20.8517 H   0  0  0  0  0  0  0  0  0  0  0  0
   -6.8060    6.3001  -20.0904 H   0  0  0  0  0  0  0  0  0  0  0  0
   -7.5223    6.5666  -23.0358 H   0  0  0  0  0  0  0  0  0  0  0  0
   -6.1844    4.3381  -23.2111 H   0  0  0  0  0  0  0  0  0  0  0  0
   -6.0707    4.3905  -21.4495 H   0  0  0  0  0  0  0  0  0  0  0  0
   -7.9653    2.6135  -21.7571 C   0  0  0  0  0  0  0  0  0  0  0  0
   -8.4419    2.5091  -20.7853 H   0  0  0  0  0  0  0  0  0  0  0  0
   -6.9227    2.3079  -21.6634 H   0  0  0  0  0  0  0  0  0  0  0  0
   -8.5755    4.6009  -21.4762 H   0  0  0  0  0  0  0  0  0  0  0  0
   -8.7351    4.8705  -24.0992 H   0  0  0  0  0  0  0  0  0  0  0  0
  -10.9653    3.7504  -23.9499 H   0  0  0  0  0  0  0  0  0  0  0  0
  -10.6673    4.3009  -22.2976 H   0  0  0  0  0  0  0  0  0  0  0  0
  -10.8182    1.4960  -23.2744 H   0  0  0  0  0  0  0  0  0  0  0  0
  -10.5248    2.0002  -21.6091 H   0  0  0  0  0  0  0  0  0  0  0  0
  1  2  2  0
  2  3  1  0
  3  4  1  0
  4  5  2  0
  5  6  1  0
  6  7  2  0
  7  8  1  0
  8  9  2  0
  9 10  1  0
 10 11  2  0
 11 12  1  0
 12 13  2  0
 12 14  1  0
 11 15  1  0
 10 16  1  0
  9 17  1  0
  7 18  1  0
  5 19  1  0
  3 20  1  0
  3 21  1  0
  2 22  1  0
 22 23  1  0
 23 24  1  0
 24 25  2  0
 25 26  1  0
 26 27  2  0
 27 28  1  0
 28 29  1  0
 28 30  2  0
 30 31  1  0
 27 32  1  0
 26 33  1  0
 25 34  1  0
 23 35  1  0
 23 36  1  0
 37 22  1  6
 37 38  1  0
 38 39  1  0
 39 40  1  0
 40 41  1  0
 41 42  1  0
 41 43  1  0
 40 44  1  0
 44 45  1  0
 45 46  1  0
 46 47  1  0
 47 48  1  0
 48 49  1  0
 49 50  1  0
 49 51  1  0
 47 52  1  0
 47 53  1  0
 46 54  1  0
 45 55  1  0
 45 56  1  0
 44 57  1  0
 57 58  1  0
 57 59  1  0
 44 60  1  1
 40 61  1  6
 39 62  1  0
 39 63  1  0
 38 64  1  0
 38 65  1  0
 13  4  1  0
 30 24  1  0
 41 37  1  0
 49 46  1  0
 13  8  1  0
 57 37  1  0
M  CHG  1  44   1
M  END
>  <cnnaffinities>  (66) 
[5.94587, 6.0128, 6.02964, 6.00842]

>  <score>  (66) 
5.94587

>  <index>  (66) 
68

>  <Smiles>  (66) 
O=C(C(c1c(nc(c2c(c(c(c(c12)[H])[H])[H])[H])[H])[H])([H])[H])N(C(c1c(c(c(c(Cl)c1[H])[H])[H])[H])([H])[H])[C@]12C(C([C@](C1([H])[H])([N@+](C(C1(C(OC1([H])[H])([H])[H])[H])([H])[H])(C2([H])[H])[H])[H])([H])[H])([H])[H]

>  <h>  (66) 
<NA>

>  <Training>  (66) 
True

>  <Success>  (66) 
True

>  <enamine_searched>  (66) 
False

>  <enamine_id>  (66) 
nan

$$$$

     RDKit          3D

 63 67  0  0  0  0  0  0  0  0999 V2000
  -12.1350    6.5515  -23.7473 C   0  0  0  0  0  0  0  0  0  0  0  0
  -11.3889    5.4498  -23.7601 C   0  0  0  0  0  0  0  0  0  0  0  0
  -10.6241    5.0432  -24.9755 C   0  0  0  0  0  0  0  0  0  0  0  0
  -10.5710    5.7394  -25.9732 O   0  0  0  0  0  0  0  0  0  0  0  0
   -9.8901    3.8551  -24.8947 N   0  0  0  0  0  0  0  0  0  0  0  0
   -8.5578    3.8805  -25.4950 C   0  0  0  0  0  0  0  0  0  0  0  0
   -7.6037    3.1893  -24.5383 C   0  0  0  0  0  0  0  0  0  0  0  0
   -8.0394    1.7391  -24.3662 C   0  0  0  0  0  0  0  0  0  0  0  0
   -9.5217    1.6001  -24.0628 C   0  0  0  0  0  0  0  0  0  0  0  0
  -10.4084    2.6385  -24.4023 C   0  0  0  0  0  0  0  0  0  0  0  0
  -11.7961    2.4486  -24.2880 C   0  0  0  0  0  0  0  0  0  0  0  0
  -12.2987    1.2679  -23.7732 C   0  0  0  0  0  0  0  0  0  0  0  0
  -11.4272    0.2639  -23.3584 C   0  0  0  0  0  0  0  0  0  0  0  0
  -10.0571    0.4451  -23.4919 C   0  0  0  0  0  0  0  0  0  0  0  0
   -9.1536   -0.6825  -23.0189 N   0  0  1  0  0  4  0  0  0  0  0  0
   -8.3735   -1.3535  -24.2215 C   0  0  0  0  0  0  0  0  0  0  0  0
   -8.4322   -2.8596  -24.1955 C   0  0  0  0  0  0  0  0  0  0  0  0
   -7.2654   -3.6236  -24.1148 C   0  0  0  0  0  0  0  0  0  0  0  0
   -7.3097   -5.0164  -24.1383 C   0  0  0  0  0  0  0  0  0  0  0  0
   -8.5287   -5.6790  -24.2742 C   0  0  0  0  0  0  0  0  0  0  0  0
   -9.6823   -4.9101  -24.3954 C   0  0  0  0  0  0  0  0  0  0  0  0
  -11.2261   -5.6539  -24.7140 Cl  0  0  0  0  0  0  0  0  0  0  0  0
   -9.6479   -3.5258  -24.3332 C   0  0  0  0  0  0  0  0  0  0  0  0
  -10.5820   -2.9830  -24.4397 H   0  0  0  0  0  0  0  0  0  0  0  0
   -8.5854   -6.7637  -24.3108 H   0  0  0  0  0  0  0  0  0  0  0  0
   -6.3833   -5.5856  -24.0661 H   0  0  0  0  0  0  0  0  0  0  0  0
   -6.3102   -3.1111  -24.0245 H   0  0  0  0  0  0  0  0  0  0  0  0
   -7.3321   -1.0279  -24.2053 H   0  0  0  0  0  0  0  0  0  0  0  0
   -8.8595   -0.9669  -25.1210 H   0  0  0  0  0  0  0  0  0  0  0  0
   -8.3651   -0.3235  -21.7737 C   0  0  0  0  0  0  0  0  0  0  0  0
   -8.5066    0.7426  -21.2366 O   0  0  0  0  0  0  0  0  0  0  0  0
   -7.4332   -1.4137  -21.2424 C   0  0  0  0  0  0  0  0  0  0  0  0
   -6.5503   -0.8606  -20.1605 C   0  0  0  0  0  0  0  0  0  0  0  0
   -6.8665   -1.0534  -18.8417 C   0  0  0  0  0  0  0  0  0  0  0  0
   -6.1886   -0.5383  -17.7836 N   0  0  0  0  0  0  0  0  0  0  0  0
   -5.1563    0.2217  -18.0609 C   0  0  0  0  0  0  0  0  0  0  0  0
   -4.7273    0.5367  -19.3792 C   0  0  0  0  0  0  0  0  0  0  0  0
   -3.6100    1.3757  -19.6202 C   0  0  0  0  0  0  0  0  0  0  0  0
   -3.2333    1.6792  -20.8999 C   0  0  0  0  0  0  0  0  0  0  0  0
   -3.9679    1.1637  -21.9911 C   0  0  0  0  0  0  0  0  0  0  0  0
   -5.0420    0.3324  -21.7852 C   0  0  0  0  0  0  0  0  0  0  0  0
   -5.4500   -0.0082  -20.4656 C   0  0  0  0  0  0  0  0  0  0  0  0
   -5.5740   -0.0800  -22.6401 H   0  0  0  0  0  0  0  0  0  0  0  0
   -3.6403    1.3883  -23.0017 H   0  0  0  0  0  0  0  0  0  0  0  0
   -2.3690    2.3083  -21.0864 H   0  0  0  0  0  0  0  0  0  0  0  0
   -3.0731    1.7753  -18.7650 H   0  0  0  0  0  0  0  0  0  0  0  0
   -4.6044    0.6294  -17.2148 H   0  0  0  0  0  0  0  0  0  0  0  0
   -7.7323   -1.6602  -18.5759 H   0  0  0  0  0  0  0  0  0  0  0  0
   -8.0475   -2.2299  -20.8438 H   0  0  0  0  0  0  0  0  0  0  0  0
   -6.8509   -1.8509  -22.0557 H   0  0  0  0  0  0  0  0  0  0  0  0
   -9.8157   -1.4497  -22.7585 H   0  0  0  0  0  0  0  0  0  0  0  0
  -11.8063   -0.6535  -22.9208 H   0  0  0  0  0  0  0  0  0  0  0  0
  -13.3733    1.1429  -23.6710 H   0  0  0  0  0  0  0  0  0  0  0  0
  -12.4805    3.2305  -24.6055 H   0  0  0  0  0  0  0  0  0  0  0  0
   -7.8055    1.1914  -25.2920 H   0  0  0  0  0  0  0  0  0  0  0  0
   -7.4427    1.2679  -23.5813 H   0  0  0  0  0  0  0  0  0  0  0  0
   -6.5759    3.2360  -24.9149 H   0  0  0  0  0  0  0  0  0  0  0  0
   -7.6240    3.7115  -23.5735 H   0  0  0  0  0  0  0  0  0  0  0  0
   -8.5527    3.3974  -26.4844 H   0  0  0  0  0  0  0  0  0  0  0  0
   -8.2940    4.9303  -25.6498 H   0  0  0  0  0  0  0  0  0  0  0  0
  -11.2598    4.8310  -22.8724 H   0  0  0  0  0  0  0  0  0  0  0  0
  -12.2395    7.1946  -24.6181 H   0  0  0  0  0  0  0  0  0  0  0  0
  -12.6730    6.8527  -22.8553 H   0  0  0  0  0  0  0  0  0  0  0  0
  1  2  2  0
  2  3  1  0
  3  4  2  0
  3  5  1  0
  5  6  1  0
  6  7  1  0
  7  8  1  0
  8  9  1  0
  9 10  2  0
 10 11  1  0
 11 12  2  0
 12 13  1  0
 13 14  2  0
 14 15  1  0
 15 16  1  0
 16 17  1  0
 17 18  2  0
 18 19  1  0
 19 20  2  0
 20 21  1  0
 21 22  1  0
 21 23  2  0
 23 24  1  0
 20 25  1  0
 19 26  1  0
 18 27  1  0
 16 28  1  0
 16 29  1  0
 15 30  1  0
 30 31  2  0
 30 32  1  0
 32 33  1  0
 33 34  2  0
 34 35  1  0
 35 36  2  0
 36 37  1  0
 37 38  2  0
 38 39  1  0
 39 40  2  0
 40 41  1  0
 41 42  2  0
 41 43  1  0
 40 44  1  0
 39 45  1  0
 38 46  1  0
 36 47  1  0
 34 48  1  0
 32 49  1  0
 32 50  1  0
 15 51  1  1
 13 52  1  0
 12 53  1  0
 11 54  1  0
  8 55  1  0
  8 56  1  0
  7 57  1  0
  7 58  1  0
  6 59  1  0
  6 60  1  0
  2 61  1  0
  1 62  1  0
  1 63  1  0
 10  5  1  0
 23 17  1  0
 42 33  1  0
 14  9  1  0
 42 37  1  0
M  CHG  1  15   1
M  END
>  <cnnaffinities>  (67) 
[6.04947]

>  <score>  (67) 
6.04947

>  <index>  (67) 
69

>  <Smiles>  (67) 
C(=C(C(=O)N1C(C(C(c2c1c(c(c(c2[N@@+](C(c1c(c(c(c(Cl)c1[H])[H])[H])[H])([H])[H])(C(=O)C(c1c(nc(c2c(c(c(c(c12)[H])[H])[H])[H])[H])[H])([H])[H])[H])[H])[H])[H])([H])[H])([H])[H])([H])[H])[H])([H])[H]

>  <h>  (67) 
<NA>

>  <Training>  (67) 
True

>  <Success>  (67) 
True

>  <enamine_searched>  (67) 
False

>  <enamine_id>  (67) 
nan

$$$$

     RDKit          3D

 52 54  0  0  0  0  0  0  0  0999 V2000
  -10.1319   -5.1718  -27.1486 C   0  0  0  0  0  0  0  0  0  0  0  0
   -9.7934   -6.5178  -26.5156 C   0  0  0  0  0  0  0  0  0  0  0  0
  -10.9236   -7.5117  -26.8187 C   0  0  0  0  0  0  0  0  0  0  0  0
  -11.7874   -7.2954  -26.1813 H   0  0  0  0  0  0  0  0  0  0  0  0
  -10.6369   -8.5639  -26.6687 H   0  0  0  0  0  0  0  0  0  0  0  0
  -11.2659   -7.3846  -27.8538 H   0  0  0  0  0  0  0  0  0  0  0  0
   -9.5454   -6.3956  -24.9995 C   0  0  0  0  0  0  0  0  0  0  0  0
   -8.4423   -5.4097  -24.5373 C   0  0  0  0  0  0  0  0  0  0  0  0
   -7.2707   -5.4743  -25.5366 C   0  0  0  0  0  0  0  0  0  0  0  0
   -6.9200   -6.5025  -25.6825 H   0  0  0  0  0  0  0  0  0  0  0  0
   -6.4078   -4.8671  -25.2527 H   0  0  0  0  0  0  0  0  0  0  0  0
   -7.5828   -5.1134  -26.5172 H   0  0  0  0  0  0  0  0  0  0  0  0
   -8.9706   -3.9477  -24.3927 C   0  0  0  0  0  0  0  0  0  0  0  0
   -8.7828   -3.3691  -22.9825 C   0  0  0  0  0  0  0  0  0  0  0  0
   -7.4182   -3.5915  -22.5078 N   0  0  0  0  0  0  0  0  0  0  0  0
   -6.7067   -2.7369  -21.7182 C   0  0  0  0  0  0  0  0  0  0  0  0
   -5.5669   -2.9988  -21.3639 O   0  0  0  0  0  0  0  0  0  0  0  0
   -7.4169   -1.4618  -21.2559 C   0  0  0  0  0  0  0  0  0  0  0  0
   -6.6342   -0.8088  -20.1688 C   0  0  0  0  0  0  0  0  0  0  0  0
   -6.9296   -1.0774  -18.8606 C   0  0  0  0  0  0  0  0  0  0  0  0
   -6.2424   -0.6014  -17.7923 N   0  0  0  0  0  0  0  0  0  0  0  0
   -5.2108    0.1682  -18.0518 C   0  0  0  0  0  0  0  0  0  0  0  0
   -4.7794    0.5135  -19.3616 C   0  0  0  0  0  0  0  0  0  0  0  0
   -3.6663    1.3617  -19.5938 C   0  0  0  0  0  0  0  0  0  0  0  0
   -3.3094    1.7027  -20.8722 C   0  0  0  0  0  0  0  0  0  0  0  0
   -4.0351    1.1952  -21.9734 C   0  0  0  0  0  0  0  0  0  0  0  0
   -5.0920    0.3418  -21.7793 C   0  0  0  0  0  0  0  0  0  0  0  0
   -5.5065    0.0044  -20.4609 C   0  0  0  0  0  0  0  0  0  0  0  0
   -5.6052   -0.0871  -22.6348 H   0  0  0  0  0  0  0  0  0  0  0  0
   -3.7400    1.4728  -22.9835 H   0  0  0  0  0  0  0  0  0  0  0  0
   -2.4706    2.3704  -21.0496 H   0  0  0  0  0  0  0  0  0  0  0  0
   -3.1199    1.7474  -18.7370 H   0  0  0  0  0  0  0  0  0  0  0  0
   -4.6617    0.5610  -17.1952 H   0  0  0  0  0  0  0  0  0  0  0  0
   -7.7708   -1.7290  -18.6203 H   0  0  0  0  0  0  0  0  0  0  0  0
   -7.5717   -0.7853  -22.1054 H   0  0  0  0  0  0  0  0  0  0  0  0
   -8.4125   -1.7311  -20.8800 H   0  0  0  0  0  0  0  0  0  0  0  0
   -6.8942   -4.9471  -22.6098 C   0  0  0  0  0  0  0  0  0  0  0  0
   -7.9875   -5.8455  -23.1318 C   0  0  0  0  0  0  0  0  0  0  0  0
   -8.8330   -5.7548  -22.4436 H   0  0  0  0  0  0  0  0  0  0  0  0
   -7.6548   -6.8847  -23.1212 H   0  0  0  0  0  0  0  0  0  0  0  0
   -6.0153   -4.9930  -23.2590 H   0  0  0  0  0  0  0  0  0  0  0  0
   -6.5317   -5.2626  -21.6297 H   0  0  0  0  0  0  0  0  0  0  0  0
   -8.9789   -2.2979  -22.9977 H   0  0  0  0  0  0  0  0  0  0  0  0
   -9.5269   -3.8091  -22.2969 H   0  0  0  0  0  0  0  0  0  0  0  0
  -10.0423   -3.9017  -24.6183 H   0  0  0  0  0  0  0  0  0  0  0  0
   -8.4648   -3.2854  -25.1078 H   0  0  0  0  0  0  0  0  0  0  0  0
  -10.4772   -6.0890  -24.4969 H   0  0  0  0  0  0  0  0  0  0  0  0
   -9.2951   -7.3981  -24.6196 H   0  0  0  0  0  0  0  0  0  0  0  0
   -8.8786   -6.9094  -26.9802 H   0  0  0  0  0  0  0  0  0  0  0  0
   -9.3515   -4.4162  -27.0201 H   0  0  0  0  0  0  0  0  0  0  0  0
  -11.0395   -4.7891  -26.6873 H   0  0  0  0  0  0  0  0  0  0  0  0
  -10.3322   -5.2867  -28.2168 H   0  0  0  0  0  0  0  0  0  0  0  0
  1  2  1  0
  2  3  1  0
  3  4  1  0
  3  5  1  0
  3  6  1  0
  2  7  1  0
  7  8  1  0
  8  9  1  0
  9 10  1  0
  9 11  1  0
  9 12  1  0
  8 13  1  0
 13 14  1  0
 14 15  1  0
 15 16  1  0
 16 17  2  0
 16 18  1  0
 18 19  1  0
 19 20  2  0
 20 21  1  0
 21 22  2  0
 22 23  1  0
 23 24  2  0
 24 25  1  0
 25 26  2  0
 26 27  1  0
 27 28  2  0
 27 29  1  0
 26 30  1  0
 25 31  1  0
 24 32  1  0
 22 33  1  0
 20 34  1  0
 18 35  1  0
 18 36  1  0
 15 37  1  0
 37 38  1  0
 38 39  1  0
 38 40  1  0
 37 41  1  0
 37 42  1  0
 14 43  1  0
 14 44  1  0
 13 45  1  0
 13 46  1  0
  7 47  1  0
  7 48  1  0
  2 49  1  0
  1 50  1  0
  1 51  1  0
  1 52  1  0
 38  8  1  0
 28 19  1  0
 28 23  1  0
M  END
>  <cnnaffinities>  (68) 
[4.70325, 4.99981, 4.99981, 4.8374, 5.17344, 5.18151, 4.80681, 4.97525, 4.35903, 4.77283, 4.4274, 4.51692, 4.5169, 4.51684, 4.51684, 4.35913, 4.35898, 4.35907, 4.46251, 4.47713, 4.42148, 4.42798]

>  <score>  (68) 
4.70325

>  <index>  (68) 
70

>  <Smiles>  (68) 
C(C(C([H])([H])[H])(C(C1(C([H])([H])[H])C(C(N(C(=O)C(c2c(nc(c3c(c(c(c(c23)[H])[H])[H])[H])[H])[H])([H])[H])C(C1([H])[H])([H])[H])([H])[H])([H])[H])([H])[H])[H])([H])([H])[H]

>  <h>  (68) 
<NA>

>  <Training>  (68) 
True

>  <Success>  (68) 
True

>  <enamine_searched>  (68) 
False

>  <enamine_id>  (68) 
nan

$$$$

     RDKit          3D

 50 54  0  0  0  0  0  0  0  0999 V2000
  -10.3871   -1.0196  -23.3569 C   0  0  0  0  0  0  0  0  0  0  0  0
   -8.9694   -1.4174  -22.9666 C   0  0  1  0  0  0  0  0  0  0  0  0
   -8.3674   -0.4971  -21.8944 C   0  0  0  0  0  0  0  0  0  0  0  0
   -7.3925   -1.3502  -21.2376 N   0  0  0  0  0  0  0  0  0  0  0  0
   -6.5845   -0.8674  -20.1838 C   0  0  0  0  0  0  0  0  0  0  0  0
   -6.8884   -1.1492  -18.8776 C   0  0  0  0  0  0  0  0  0  0  0  0
   -6.2252   -0.6218  -17.8190 N   0  0  0  0  0  0  0  0  0  0  0  0
   -5.2205    0.1840  -18.0659 C   0  0  0  0  0  0  0  0  0  0  0  0
   -4.7833    0.5361  -19.3745 C   0  0  0  0  0  0  0  0  0  0  0  0
   -3.6697    1.3865  -19.6069 C   0  0  0  0  0  0  0  0  0  0  0  0
   -3.3081    1.7113  -20.8848 C   0  0  0  0  0  0  0  0  0  0  0  0
   -4.0351    1.2047  -21.9864 C   0  0  0  0  0  0  0  0  0  0  0  0
   -5.0953    0.3561  -21.7893 C   0  0  0  0  0  0  0  0  0  0  0  0
   -5.4946    0.0088  -20.4735 C   0  0  0  0  0  0  0  0  0  0  0  0
   -5.6252   -0.0778  -22.6315 H   0  0  0  0  0  0  0  0  0  0  0  0
   -3.7310    1.4574  -22.9972 H   0  0  0  0  0  0  0  0  0  0  0  0
   -2.4555    2.3589  -21.0690 H   0  0  0  0  0  0  0  0  0  0  0  0
   -3.1197    1.7729  -18.7530 H   0  0  0  0  0  0  0  0  0  0  0  0
   -4.6921    0.5979  -17.2056 H   0  0  0  0  0  0  0  0  0  0  0  0
   -7.7138   -1.8145  -18.6327 H   0  0  0  0  0  0  0  0  0  0  0  0
   -7.6369   -2.6970  -21.4197 C   0  0  0  0  0  0  0  0  0  0  0  0
   -6.9935   -3.5849  -20.8981 O   0  0  0  0  0  0  0  0  0  0  0  0
   -8.8238   -2.8698  -22.3817 C   0  0  1  0  0  0  0  0  0  0  0  0
  -10.0699   -3.2861  -21.5593 C   0  0  0  0  0  0  0  0  0  0  0  0
  -11.1915   -3.6910  -22.4010 N   0  0  0  0  0  0  0  0  0  0  0  0
  -12.5724   -3.5274  -21.9725 C   0  0  0  0  0  0  0  0  0  0  0  0
  -13.3053   -2.5039  -22.7416 C   0  0  0  0  0  0  0  0  0  0  0  0
  -13.9398   -1.7051  -23.2931 N   0  0  0  0  0  0  0  0  0  0  0  0
  -12.6278   -3.2724  -20.9129 H   0  0  0  0  0  0  0  0  0  0  0  0
  -13.0884   -4.4872  -22.1198 H   0  0  0  0  0  0  0  0  0  0  0  0
  -10.9891   -4.5627  -23.4384 C   0  0  0  0  0  0  0  0  0  0  0  0
  -11.9166   -5.1410  -23.9819 O   0  0  0  0  0  0  0  0  0  0  0  0
   -9.5757   -4.7528  -23.8819 C   0  0  0  0  0  0  0  0  0  0  0  0
   -9.3339   -5.7455  -24.8279 C   0  0  0  0  0  0  0  0  0  0  0  0
   -8.0696   -5.9354  -25.3491 C   0  0  0  0  0  0  0  0  0  0  0  0
   -7.0527   -5.0871  -24.9211 C   0  0  0  0  0  0  0  0  0  0  0  0
   -5.8184   -5.2555  -25.4242 F   0  0  0  0  0  0  0  0  0  0  0  0
   -7.2577   -4.1083  -23.9663 C   0  0  0  0  0  0  0  0  0  0  0  0
   -8.5396   -3.9351  -23.4206 C   0  0  0  0  0  0  0  0  0  0  0  0
   -6.4022   -3.5418  -23.6077 H   0  0  0  0  0  0  0  0  0  0  0  0
   -7.8602   -6.7377  -26.0481 H   0  0  0  0  0  0  0  0  0  0  0  0
  -10.1728   -6.3597  -25.1368 H   0  0  0  0  0  0  0  0  0  0  0  0
   -9.7980   -4.1066  -20.8882 H   0  0  0  0  0  0  0  0  0  0  0  0
  -10.3479   -2.4278  -20.9447 H   0  0  0  0  0  0  0  0  0  0  0  0
   -9.1367   -0.1469  -21.1866 H   0  0  0  0  0  0  0  0  0  0  0  0
   -7.9047    0.4029  -22.3129 H   0  0  0  0  0  0  0  0  0  0  0  0
   -8.3190   -1.3892  -23.8518 H   0  0  0  0  0  0  0  0  0  0  0  0
  -10.4369   -0.0343  -23.8284 H   0  0  0  0  0  0  0  0  0  0  0  0
  -11.0284   -0.9954  -22.4696 H   0  0  0  0  0  0  0  0  0  0  0  0
  -10.8061   -1.7600  -24.0419 H   0  0  0  0  0  0  0  0  0  0  0  0
  1  2  1  0
  2  3  1  0
  3  4  1  0
  4  5  1  0
  5  6  2  0
  6  7  1  0
  7  8  2  0
  8  9  1  0
  9 10  2  0
 10 11  1  0
 11 12  2  0
 12 13  1  0
 13 14  2  0
 13 15  1  0
 12 16  1  0
 11 17  1  0
 10 18  1  0
  8 19  1  0
  6 20  1  0
  4 21  1  0
 21 22  2  0
 21 23  1  0
 23 24  1  1
 24 25  1  0
 25 26  1  0
 26 27  1  0
 27 28  3  0
 26 29  1  0
 26 30  1  0
 25 31  1  0
 31 32  2  0
 31 33  1  0
 33 34  2  0
 34 35  1  0
 35 36  2  0
 36 37  1  0
 36 38  1  0
 38 39  2  0
 38 40  1  0
 35 41  1  0
 34 42  1  0
 24 43  1  0
 24 44  1  0
  3 45  1  0
  3 46  1  0
  2 47  1  6
  1 48  1  0
  1 49  1  0
  1 50  1  0
 23  2  1  0
 39 33  1  0
 14  5  1  0
 39 23  1  0
 14  9  1  0
M  END
>  <cnnaffinities>  (69) 
[6.04092]

>  <score>  (69) 
6.04092

>  <index>  (69) 
71

>  <Smiles>  (69) 
C([C@]1(C(N(c2c(nc(c3c(c(c(c(c23)[H])[H])[H])[H])[H])[H])C(=O)[C@]21C(N(C(C#N)([H])[H])C(=O)c1c(c(c(F)c(c21)[H])[H])[H])([H])[H])([H])[H])[H])([H])([H])[H]

>  <h>  (69) 
<NA>

>  <Training>  (69) 
True

>  <Success>  (69) 
True

>  <enamine_searched>  (69) 
False

>  <enamine_id>  (69) 
nan

$$$$

     RDKit          3D

 41 44  0  0  0  0  0  0  0  0999 V2000
   -8.6691    0.7095  -21.2715 O   0  0  0  0  0  0  0  0  0  0  0  0
   -8.6465   -0.4364  -21.6979 C   0  0  0  0  0  0  0  0  0  0  0  0
   -7.5278   -1.4041  -21.2885 C   0  0  0  0  0  0  0  0  0  0  0  0
   -6.6564   -0.8399  -20.2016 C   0  0  0  0  0  0  0  0  0  0  0  0
   -6.9502   -1.0863  -18.8896 C   0  0  0  0  0  0  0  0  0  0  0  0
   -6.2656   -0.6055  -17.8183 N   0  0  0  0  0  0  0  0  0  0  0  0
   -5.2402    0.1728  -18.0741 C   0  0  0  0  0  0  0  0  0  0  0  0
   -4.8166    0.5244  -19.3830 C   0  0  0  0  0  0  0  0  0  0  0  0
   -3.6938    1.3602  -19.6056 C   0  0  0  0  0  0  0  0  0  0  0  0
   -3.3255    1.6954  -20.8788 C   0  0  0  0  0  0  0  0  0  0  0  0
   -4.0715    1.2223  -21.9779 C   0  0  0  0  0  0  0  0  0  0  0  0
   -5.1578    0.4061  -21.7901 C   0  0  0  0  0  0  0  0  0  0  0  0
   -5.5558    0.0248  -20.4825 C   0  0  0  0  0  0  0  0  0  0  0  0
   -5.7138    0.0467  -22.6493 H   0  0  0  0  0  0  0  0  0  0  0  0
   -3.7655    1.5000  -22.9826 H   0  0  0  0  0  0  0  0  0  0  0  0
   -2.4613    2.3300  -21.0480 H   0  0  0  0  0  0  0  0  0  0  0  0
   -3.1395    1.7256  -18.7447 H   0  0  0  0  0  0  0  0  0  0  0  0
   -4.6892    0.5585  -17.2158 H   0  0  0  0  0  0  0  0  0  0  0  0
   -7.7980   -1.7261  -18.6411 H   0  0  0  0  0  0  0  0  0  0  0  0
   -7.9877   -2.3411  -20.9394 H   0  0  0  0  0  0  0  0  0  0  0  0
   -6.9245   -1.6570  -22.1697 H   0  0  0  0  0  0  0  0  0  0  0  0
   -9.6212   -0.9330  -22.5320 N   0  0  0  0  0  0  0  0  0  0  0  0
   -9.5773   -2.2403  -23.1994 C   0  0  0  0  0  0  0  0  0  0  0  0
  -10.3141   -3.3387  -22.4177 C   0  0  0  0  0  0  0  0  0  0  0  0
  -11.5470   -2.7646  -21.6919 C   0  0  0  0  0  0  0  0  0  0  0  0
  -12.4354   -1.8274  -22.4918 C   0  0  0  0  0  0  0  0  0  0  0  0
  -14.1474   -2.0846  -22.6625 S   0  0  0  0  0  0  0  0  0  0  0  0
  -14.3584   -0.5563  -23.4282 C   0  0  0  0  0  0  0  0  0  0  0  0
  -13.1865    0.1201  -23.5365 C   0  0  0  0  0  0  0  0  0  0  0  0
  -12.0679   -0.6057  -22.9914 C   0  0  0  0  0  0  0  0  0  0  0  0
  -10.6772   -0.0032  -22.9219 C   0  0  0  0  0  0  0  0  0  0  0  0
  -10.4095    0.4601  -23.8868 H   0  0  0  0  0  0  0  0  0  0  0  0
  -10.6776    0.8166  -22.1927 H   0  0  0  0  0  0  0  0  0  0  0  0
  -13.1509    1.1134  -23.9804 H   0  0  0  0  0  0  0  0  0  0  0  0
  -15.3450   -0.1826  -23.6790 H   0  0  0  0  0  0  0  0  0  0  0  0
  -12.1437   -3.5461  -21.2106 H   0  0  0  0  0  0  0  0  0  0  0  0
  -11.1288   -2.1375  -20.8939 H   0  0  0  0  0  0  0  0  0  0  0  0
   -9.6607   -3.7881  -21.6599 H   0  0  0  0  0  0  0  0  0  0  0  0
  -10.5690   -4.1588  -23.1032 H   0  0  0  0  0  0  0  0  0  0  0  0
  -10.1132   -2.1251  -24.1484 H   0  0  0  0  0  0  0  0  0  0  0  0
   -8.5410   -2.5436  -23.4202 H   0  0  0  0  0  0  0  0  0  0  0  0
  1  2  2  0
  2  3  1  0
  3  4  1  0
  4  5  2  0
  5  6  1  0
  6  7  2  0
  7  8  1  0
  8  9  2  0
  9 10  1  0
 10 11  2  0
 11 12  1  0
 12 13  2  0
 12 14  1  0
 11 15  1  0
 10 16  1  0
  9 17  1  0
  7 18  1  0
  5 19  1  0
  3 20  1  0
  3 21  1  0
  2 22  1  0
 22 23  1  0
 23 24  1  0
 24 25  1  0
 25 26  1  0
 26 27  1  0
 27 28  1  0
 28 29  2  0
 29 30  1  0
 30 31  1  0
 31 32  1  0
 31 33  1  0
 29 34  1  0
 28 35  1  0
 25 36  1  0
 25 37  1  0
 24 38  1  0
 24 39  1  0
 23 40  1  0
 23 41  1  0
 13  4  1  0
 31 22  1  0
 13  8  1  0
 30 26  2  0
M  END
>  <cnnaffinities>  (70) 
[4.81574, 4.41357]

>  <score>  (70) 
4.81574

>  <index>  (70) 
72

>  <Smiles>  (70) 
O=C(C(c1c(nc(c2c(c(c(c(c12)[H])[H])[H])[H])[H])[H])([H])[H])N1C(C(C(c2sc(c(c2C1([H])[H])[H])[H])([H])[H])([H])[H])([H])[H]

>  <h>  (70) 
<NA>

>  <Training>  (70) 
True

>  <Success>  (70) 
True

>  <enamine_searched>  (70) 
False

>  <enamine_id>  (70) 
nan

$$$$

     RDKit          3D

 50 53  0  0  0  0  0  0  0  0999 V2000
   -5.6001   -3.0242  -21.5767 O   0  0  0  0  0  0  0  0  0  0  0  0
   -6.7560   -2.7514  -21.8606 C   0  0  0  0  0  0  0  0  0  0  0  0
   -7.4154   -1.4782  -21.2677 C   0  0  0  0  0  0  0  0  0  0  0  0
   -6.5819   -0.8316  -20.1842 C   0  0  0  0  0  0  0  0  0  0  0  0
   -6.8735   -1.0453  -18.8618 C   0  0  0  0  0  0  0  0  0  0  0  0
   -6.1869   -0.5472  -17.8006 N   0  0  0  0  0  0  0  0  0  0  0  0
   -5.1576    0.2223  -18.0641 C   0  0  0  0  0  0  0  0  0  0  0  0
   -4.7227    0.5305  -19.3818 C   0  0  0  0  0  0  0  0  0  0  0  0
   -3.5930    1.3584  -19.6178 C   0  0  0  0  0  0  0  0  0  0  0  0
   -3.1998    1.6442  -20.8979 C   0  0  0  0  0  0  0  0  0  0  0  0
   -3.9321    1.1230  -21.9862 C   0  0  0  0  0  0  0  0  0  0  0  0
   -5.0104    0.2964  -21.7846 C   0  0  0  0  0  0  0  0  0  0  0  0
   -5.4466   -0.0130  -20.4711 C   0  0  0  0  0  0  0  0  0  0  0  0
   -5.5241   -0.1317  -22.6374 H   0  0  0  0  0  0  0  0  0  0  0  0
   -3.5866    1.3207  -22.9962 H   0  0  0  0  0  0  0  0  0  0  0  0
   -2.3292    2.2673  -21.0879 H   0  0  0  0  0  0  0  0  0  0  0  0
   -3.0540    1.7737  -18.7694 H   0  0  0  0  0  0  0  0  0  0  0  0
   -4.6022    0.6278  -17.2165 H   0  0  0  0  0  0  0  0  0  0  0  0
   -7.7202   -1.6696  -18.5859 H   0  0  0  0  0  0  0  0  0  0  0  0
   -7.6147   -0.7474  -22.0642 H   0  0  0  0  0  0  0  0  0  0  0  0
   -8.3956   -1.7464  -20.8473 H   0  0  0  0  0  0  0  0  0  0  0  0
   -7.5157   -3.5795  -22.6634 N   0  0  0  0  0  0  0  0  0  0  0  0
   -8.6634   -3.1246  -23.4534 C   0  0  0  0  0  0  0  0  0  0  0  0
   -9.7338   -4.2006  -23.5651 C   0  0  0  0  0  0  0  0  0  0  0  0
   -9.1568   -5.4972  -24.1070 C   0  0  0  0  0  0  0  0  0  0  0  0
   -7.9713   -5.9236  -23.2520 C   0  0  0  0  0  0  0  0  0  0  0  0
   -6.9014   -4.8458  -23.1112 C   0  0  1  0  0  0  0  0  0  0  0  0
   -6.0375   -4.6933  -24.3747 C   0  0  0  0  0  0  0  0  0  0  0  0
   -5.2066   -5.9198  -24.6891 C   0  0  0  0  0  0  0  0  0  0  0  0
   -4.0473   -6.1880  -23.9574 C   0  0  0  0  0  0  0  0  0  0  0  0
   -3.2837   -7.3199  -24.2198 C   0  0  0  0  0  0  0  0  0  0  0  0
   -3.6710   -8.2098  -25.2175 C   0  0  0  0  0  0  0  0  0  0  0  0
   -4.8273   -7.9603  -25.9496 C   0  0  0  0  0  0  0  0  0  0  0  0
   -5.5863   -6.8240  -25.6832 C   0  0  0  0  0  0  0  0  0  0  0  0
   -6.4949   -6.6408  -26.2537 H   0  0  0  0  0  0  0  0  0  0  0  0
   -5.1408   -8.6460  -26.7317 H   0  0  0  0  0  0  0  0  0  0  0  0
   -3.0723   -9.0912  -25.4257 H   0  0  0  0  0  0  0  0  0  0  0  0
   -2.3826   -7.5104  -23.6437 H   0  0  0  0  0  0  0  0  0  0  0  0
   -3.7425   -5.5001  -23.1716 H   0  0  0  0  0  0  0  0  0  0  0  0
   -6.6843   -4.4566  -25.2260 H   0  0  0  0  0  0  0  0  0  0  0  0
   -5.3787   -3.8359  -24.2189 H   0  0  0  0  0  0  0  0  0  0  0  0
   -6.2391   -5.1580  -22.3015 H   0  0  0  0  0  0  0  0  0  0  0  0
   -8.2888   -6.1194  -22.2287 H   0  0  0  0  0  0  0  0  0  0  0  0
   -7.5418   -6.8562  -23.6353 H   0  0  0  0  0  0  0  0  0  0  0  0
   -9.9238   -6.2760  -24.1431 H   0  0  0  0  0  0  0  0  0  0  0  0
   -8.8368   -5.3714  -25.1483 H   0  0  0  0  0  0  0  0  0  0  0  0
  -10.1659   -4.3768  -22.5766 H   0  0  0  0  0  0  0  0  0  0  0  0
  -10.5519   -3.8506  -24.2013 H   0  0  0  0  0  0  0  0  0  0  0  0
   -9.0887   -2.2322  -22.9943 H   0  0  0  0  0  0  0  0  0  0  0  0
   -8.3561   -2.8289  -24.4680 H   0  0  0  0  0  0  0  0  0  0  0  0
  1  2  2  0
  2  3  1  0
  3  4  1  0
  4  5  2  0
  5  6  1  0
  6  7  2  0
  7  8  1  0
  8  9  2  0
  9 10  1  0
 10 11  2  0
 11 12  1  0
 12 13  2  0
 12 14  1  0
 11 15  1  0
 10 16  1  0
  9 17  1  0
  7 18  1  0
  5 19  1  0
  3 20  1  0
  3 21  1  0
  2 22  1  0
 22 23  1  0
 23 24  1  0
 24 25  1  0
 25 26  1  0
 26 27  1  0
 27 28  1  0
 28 29  1  0
 29 30  2  0
 30 31  1  0
 31 32  2  0
 32 33  1  0
 33 34  2  0
 34 35  1  0
 33 36  1  0
 32 37  1  0
 31 38  1  0
 30 39  1  0
 28 40  1  0
 28 41  1  0
 27 42  1  1
 26 43  1  0
 26 44  1  0
 25 45  1  0
 25 46  1  0
 24 47  1  0
 24 48  1  0
 23 49  1  0
 23 50  1  0
 13  4  1  0
 27 22  1  0
 34 29  1  0
 13  8  1  0
M  END
>  <cnnaffinities>  (71) 
[5.36392]

>  <score>  (71) 
5.36392

>  <index>  (71) 
73

>  <Smiles>  (71) 
O=C(C(c1c(nc(c2c(c(c(c(c12)[H])[H])[H])[H])[H])[H])([H])[H])N1C(C(C(C([C@]1(C(c1c(c(c(c(c1[H])[H])[H])[H])[H])([H])[H])[H])([H])[H])([H])[H])([H])[H])([H])[H]

>  <h>  (71) 
<NA>

>  <Training>  (71) 
True

>  <Success>  (71) 
True

>  <enamine_searched>  (71) 
False

>  <enamine_id>  (71) 
nan

$$$$

     RDKit          3D

 43 47  0  0  0  0  0  0  0  0999 V2000
   -5.5757   -3.1079  -21.7318 O   0  0  0  0  0  0  0  0  0  0  0  0
   -6.6041   -2.4988  -21.9115 C   0  0  0  0  0  0  0  0  0  0  0  0
   -7.4689   -2.5877  -22.9684 N   0  0  0  0  0  0  0  0  0  0  0  0
   -8.6225   -1.7241  -22.8772 C   0  0  1  0  0  0  0  0  0  0  0  0
   -8.9263   -0.7774  -24.0697 C   0  0  0  0  0  0  0  0  0  0  0  0
  -10.2905   -1.4720  -24.2949 C   0  0  2  0  0  0  0  0  0  0  0  0
  -11.4984   -0.6012  -24.1904 C   0  0  0  0  0  0  0  0  0  0  0  0
  -11.5867    0.4096  -23.2320 C   0  0  0  0  0  0  0  0  0  0  0  0
  -12.7691    1.1061  -23.0463 C   0  0  0  0  0  0  0  0  0  0  0  0
  -13.9259    0.7337  -23.7273 C   0  0  0  0  0  0  0  0  0  0  0  0
  -13.8496   -0.2558  -24.7035 C   0  0  0  0  0  0  0  0  0  0  0  0
  -12.6199   -0.8404  -24.9784 C   0  0  0  0  0  0  0  0  0  0  0  0
  -12.4444   -1.7477  -26.4517 Cl  0  0  0  0  0  0  0  0  0  0  0  0
  -14.7082   -0.5767  -25.2722 H   0  0  0  0  0  0  0  0  0  0  0  0
  -14.8555    1.2483  -23.5057 H   0  0  0  0  0  0  0  0  0  0  0  0
  -12.7842    1.9321  -22.3432 H   0  0  0  0  0  0  0  0  0  0  0  0
  -10.7221    0.6520  -22.6084 H   0  0  0  0  0  0  0  0  0  0  0  0
  -10.0351   -2.3358  -23.0237 C   0  0  0  0  0  0  0  0  0  0  0  0
  -10.6734   -2.0545  -22.1825 H   0  0  0  0  0  0  0  0  0  0  0  0
  -10.0687   -3.4209  -23.1281 H   0  0  0  0  0  0  0  0  0  0  0  0
  -10.3147   -2.0667  -25.2074 H   0  0  0  0  0  0  0  0  0  0  0  0
   -9.0321    0.2590  -23.7515 H   0  0  0  0  0  0  0  0  0  0  0  0
   -8.2199   -0.8192  -24.8994 H   0  0  0  0  0  0  0  0  0  0  0  0
   -8.3747   -1.0324  -21.5486 C   0  0  0  0  0  0  0  0  0  0  0  0
   -9.0801   -0.2178  -21.0008 O   0  0  0  0  0  0  0  0  0  0  0  0
   -7.1584   -1.5180  -21.0604 N   0  0  0  0  0  0  0  0  0  0  0  0
   -6.4250   -0.8566  -20.0333 C   0  0  0  0  0  0  0  0  0  0  0  0
   -6.7804   -1.0271  -18.7241 C   0  0  0  0  0  0  0  0  0  0  0  0
   -6.1036   -0.4965  -17.6756 N   0  0  0  0  0  0  0  0  0  0  0  0
   -5.0664    0.2596  -17.9425 C   0  0  0  0  0  0  0  0  0  0  0  0
   -4.6355    0.5815  -19.2613 C   0  0  0  0  0  0  0  0  0  0  0  0
   -3.5367    1.4471  -19.5089 C   0  0  0  0  0  0  0  0  0  0  0  0
   -3.2099    1.7913  -20.7910 C   0  0  0  0  0  0  0  0  0  0  0  0
   -3.9693    1.3006  -21.8765 C   0  0  0  0  0  0  0  0  0  0  0  0
   -5.0198    0.4470  -21.6659 C   0  0  0  0  0  0  0  0  0  0  0  0
   -5.3568    0.0404  -20.3466 C   0  0  0  0  0  0  0  0  0  0  0  0
   -5.6090    0.0878  -22.5034 H   0  0  0  0  0  0  0  0  0  0  0  0
   -3.7081    1.5892  -22.8892 H   0  0  0  0  0  0  0  0  0  0  0  0
   -2.3757    2.4581  -20.9895 H   0  0  0  0  0  0  0  0  0  0  0  0
   -2.9827    1.8426  -18.6624 H   0  0  0  0  0  0  0  0  0  0  0  0
   -4.5205    0.6739  -17.0937 H   0  0  0  0  0  0  0  0  0  0  0  0
   -7.6557   -1.6216  -18.4822 H   0  0  0  0  0  0  0  0  0  0  0  0
   -7.3191   -3.2718  -23.6920 H   0  0  0  0  0  0  0  0  0  0  0  0
  1  2  2  0
  2  3  1  0
  4  3  1  6
  4  5  1  0
  5  6  1  0
  6  7  1  0
  7  8  2  0
  8  9  1  0
  9 10  2  0
 10 11  1  0
 11 12  2  0
 12 13  1  0
 11 14  1  0
 10 15  1  0
  9 16  1  0
  8 17  1  0
  6 18  1  0
 18 19  1  0
 18 20  1  0
  6 21  1  6
  5 22  1  0
  5 23  1  0
  4 24  1  0
 24 25  2  0
 24 26  1  0
 26 27  1  0
 27 28  2  0
 28 29  1  0
 29 30  2  0
 30 31  1  0
 31 32  2  0
 32 33  1  0
 33 34  2  0
 34 35  1  0
 35 36  2  0
 35 37  1  0
 34 38  1  0
 33 39  1  0
 32 40  1  0
 30 41  1  0
 28 42  1  0
  3 43  1  0
 26  2  1  0
 36 27  1  0
 18  4  1  0
 36 31  1  0
 12  7  1  0
M  END
>  <cnnaffinities>  (72) 
[5.13727, 5.50076]

>  <score>  (72) 
5.13727

>  <index>  (72) 
74

>  <Smiles>  (72) 
O=C1N([C@]2(C([C@](c3c(c(c(c(c3Cl)[H])[H])[H])[H])(C2([H])[H])[H])([H])[H])C(=O)N1c1c(nc(c2c(c(c(c(c12)[H])[H])[H])[H])[H])[H])[H]

>  <h>  (72) 
<NA>

>  <Training>  (72) 
True

>  <Success>  (72) 
True

>  <enamine_searched>  (72) 
False

>  <enamine_id>  (72) 
nan

$$$$

     RDKit          3D

 66 71  0  0  0  0  0  0  0  0999 V2000
   -8.2309   -4.7510  -28.8811 C   0  0  0  0  0  0  0  0  0  0  0  0
   -8.0980   -3.3594  -28.4846 N   0  0  0  0  0  0  0  0  0  0  0  0
   -7.3705   -3.0842  -27.3685 C   0  0  0  0  0  0  0  0  0  0  0  0
   -6.7201   -3.9259  -26.7673 O   0  0  0  0  0  0  0  0  0  0  0  0
   -7.4458   -1.6352  -26.9007 C   0  0  0  0  0  0  0  0  0  0  0  0
   -8.3497   -1.5509  -25.7665 N   0  0  0  0  0  0  0  0  0  0  0  0
   -7.8161   -1.1381  -24.4787 C   0  0  0  0  0  0  0  0  0  0  0  0
   -8.6927   -1.5430  -23.2637 C   0  0  2  0  0  0  0  0  0  0  0  0
   -8.1928   -0.6506  -22.1072 C   0  0  0  0  0  0  0  0  0  0  0  0
   -8.3662    0.5448  -21.9786 O   0  0  0  0  0  0  0  0  0  0  0  0
   -7.4320   -1.4121  -21.2470 N   0  0  0  0  0  0  0  0  0  0  0  0
   -6.6377   -0.8310  -20.2279 C   0  0  0  0  0  0  0  0  0  0  0  0
   -6.9280   -1.1089  -18.9180 C   0  0  0  0  0  0  0  0  0  0  0  0
   -6.2487   -0.6197  -17.8531 N   0  0  0  0  0  0  0  0  0  0  0  0
   -5.2302    0.1672  -18.1043 C   0  0  0  0  0  0  0  0  0  0  0  0
   -4.8030    0.5172  -19.4150 C   0  0  0  0  0  0  0  0  0  0  0  0
   -3.6762    1.3554  -19.6177 C   0  0  0  0  0  0  0  0  0  0  0  0
   -3.2762    1.6830  -20.8816 C   0  0  0  0  0  0  0  0  0  0  0  0
   -3.9860    1.1880  -21.9984 C   0  0  0  0  0  0  0  0  0  0  0  0
   -5.0603    0.3526  -21.8322 C   0  0  0  0  0  0  0  0  0  0  0  0
   -5.5154    0.0092  -20.5248 C   0  0  0  0  0  0  0  0  0  0  0  0
   -5.5647   -0.0438  -22.7090 H   0  0  0  0  0  0  0  0  0  0  0  0
   -3.6486    1.4478  -22.9975 H   0  0  0  0  0  0  0  0  0  0  0  0
   -2.4052    2.3125  -21.0381 H   0  0  0  0  0  0  0  0  0  0  0  0
   -3.1451    1.7260  -18.7452 H   0  0  0  0  0  0  0  0  0  0  0  0
   -4.6770    0.5635  -17.2512 H   0  0  0  0  0  0  0  0  0  0  0  0
   -7.7747   -1.7537  -18.6886 H   0  0  0  0  0  0  0  0  0  0  0  0
   -7.3011   -2.7973  -21.6472 C   0  0  0  0  0  0  0  0  0  0  0  0
   -8.4235   -2.9767  -22.6724 C   0  0  2  0  0  0  0  0  0  0  0  0
   -8.1041   -4.1048  -23.6464 C   0  0  0  0  0  0  0  0  0  0  0  0
   -9.3049   -4.5383  -24.3237 N   0  0  0  0  0  0  0  0  0  0  0  0
   -9.2680   -5.5706  -25.2182 C   0  0  0  0  0  0  0  0  0  0  0  0
  -10.3842   -5.8468  -26.0408 C   0  0  0  0  0  0  0  0  0  0  0  0
  -10.3859   -6.8291  -26.9199 N   0  0  0  0  0  0  0  0  0  0  0  0
   -9.2791   -7.5805  -26.9935 C   0  0  0  0  0  0  0  0  0  0  0  0
   -8.1896   -7.3140  -26.1924 C   0  0  0  0  0  0  0  0  0  0  0  0
   -8.1670   -6.3137  -25.3011 N   0  0  0  0  0  0  0  0  0  0  0  0
   -7.2783   -7.8973  -26.2942 H   0  0  0  0  0  0  0  0  0  0  0  0
   -9.2655   -8.3849  -27.7256 H   0  0  0  0  0  0  0  0  0  0  0  0
  -11.2774   -5.2352  -25.9865 H   0  0  0  0  0  0  0  0  0  0  0  0
  -10.0558   -3.8657  -24.4148 H   0  0  0  0  0  0  0  0  0  0  0  0
   -7.3310   -3.8149  -24.3757 H   0  0  0  0  0  0  0  0  0  0  0  0
   -7.7163   -4.9666  -23.0895 H   0  0  0  0  0  0  0  0  0  0  0  0
   -9.3327   -3.2605  -22.1191 H   0  0  0  0  0  0  0  0  0  0  0  0
   -7.4111   -3.4611  -20.7855 H   0  0  0  0  0  0  0  0  0  0  0  0
   -6.3107   -3.0050  -22.0839 H   0  0  0  0  0  0  0  0  0  0  0  0
  -10.1498   -1.2869  -23.6044 C   0  0  0  0  0  0  0  0  0  0  0  0
  -11.0945   -1.0860  -22.5901 C   0  0  0  0  0  0  0  0  0  0  0  0
  -12.4342   -0.9206  -22.9063 C   0  0  0  0  0  0  0  0  0  0  0  0
  -13.6048   -0.7401  -21.6427 Cl  0  0  0  0  0  0  0  0  0  0  0  0
  -12.8863   -0.9229  -24.2240 C   0  0  0  0  0  0  0  0  0  0  0  0
  -11.9582   -1.1290  -25.2255 C   0  0  0  0  0  0  0  0  0  0  0  0
  -10.6078   -1.2920  -24.9265 C   0  0  0  0  0  0  0  0  0  0  0  0
   -9.6763   -1.4821  -26.0705 C   0  0  0  0  0  0  0  0  0  0  0  0
  -10.0844   -1.5797  -27.2294 O   0  0  0  0  0  0  0  0  0  0  0  0
  -12.2545   -1.1712  -26.2662 H   0  0  0  0  0  0  0  0  0  0  0  0
  -13.9370   -0.7600  -24.4510 H   0  0  0  0  0  0  0  0  0  0  0  0
  -10.7717   -1.0375  -21.5568 H   0  0  0  0  0  0  0  0  0  0  0  0
   -6.8163   -1.5803  -24.3689 H   0  0  0  0  0  0  0  0  0  0  0  0
   -7.6984   -0.0435  -24.4580 H   0  0  0  0  0  0  0  0  0  0  0  0
   -6.4622   -1.2963  -26.5806 H   0  0  0  0  0  0  0  0  0  0  0  0
   -7.7968   -0.9814  -27.7035 H   0  0  0  0  0  0  0  0  0  0  0  0
   -8.8559   -2.7234  -28.6953 H   0  0  0  0  0  0  0  0  0  0  0  0
   -9.1229   -4.8817  -29.4961 H   0  0  0  0  0  0  0  0  0  0  0  0
   -8.3149   -5.3766  -27.9884 H   0  0  0  0  0  0  0  0  0  0  0  0
   -7.3548   -5.0892  -29.4451 H   0  0  0  0  0  0  0  0  0  0  0  0
  1  2  1  0
  2  3  1  0
  3  4  2  0
  3  5  1  0
  5  6  1  0
  6  7  1  0
  8  7  1  6
  8  9  1  0
  9 10  2  0
  9 11  1  0
 11 12  1  0
 12 13  2  0
 13 14  1  0
 14 15  2  0
 15 16  1  0
 16 17  2  0
 17 18  1  0
 18 19  2  0
 19 20  1  0
 20 21  2  0
 20 22  1  0
 19 23  1  0
 18 24  1  0
 17 25  1  0
 15 26  1  0
 13 27  1  0
 11 28  1  0
 28 29  1  0
 29 30  1  0
 30 31  1  0
 31 32  1  0
 32 33  2  0
 33 34  1  0
 34 35  2  0
 35 36  1  0
 36 37  2  0
 36 38  1  0
 35 39  1  0
 33 40  1  0
 31 41  1  0
 30 42  1  0
 30 43  1  0
 29 44  1  1
 28 45  1  0
 28 46  1  0
  8 47  1  0
 47 48  2  0
 48 49  1  0
 49 50  1  0
 49 51  2  0
 51 52  1  0
 52 53  2  0
 53 54  1  0
 54 55  2  0
 52 56  1  0
 51 57  1  0
 48 58  1  0
  7 59  1  0
  7 60  1  0
  5 61  1  0
  5 62  1  0
  2 63  1  0
  1 64  1  0
  1 65  1  0
  1 66  1  0
 54  6  1  0
 29  8  1  0
 37 32  1  0
 53 47  1  0
 21 12  1  0
 21 16  1  0
M  END
>  <cnnaffinities>  (73) 
[5.65156, 6.15954, 6.7562]

>  <score>  (73) 
5.65156

>  <index>  (73) 
75

>  <Smiles>  (73) 
C(N(C(=O)C(N1C([C@@]2(C(=O)N(c3c(nc(c4c(c(c(c(c34)[H])[H])[H])[H])[H])[H])C([C@@]2(C(N(c2c(nc(c(n2)[H])[H])[H])[H])([H])[H])[H])([H])[H])c2c(c(Cl)c(c(c2C1=O)[H])[H])[H])([H])[H])([H])[H])[H])([H])([H])[H]

>  <h>  (73) 
<NA>

>  <Training>  (73) 
True

>  <Success>  (73) 
True

>  <enamine_searched>  (73) 
False

>  <enamine_id>  (73) 
nan

$$$$

     RDKit          3D

 66 71  0  0  0  0  0  0  0  0999 V2000
   -8.1946   -3.4711  -24.1022 C   0  0  0  0  0  0  0  0  0  0  0  0
   -8.4672   -2.7343  -22.7833 C   0  0  1  0  0  0  0  0  0  0  0  0
   -7.1837   -2.5241  -21.9495 C   0  0  0  0  0  0  0  0  0  0  0  0
   -7.4567   -1.3176  -21.1904 N   0  0  0  0  0  0  0  0  0  0  0  0
   -6.6180   -0.7954  -20.1687 C   0  0  0  0  0  0  0  0  0  0  0  0
   -6.9134   -1.0422  -18.8517 C   0  0  0  0  0  0  0  0  0  0  0  0
   -6.1983   -0.5654  -17.8067 N   0  0  0  0  0  0  0  0  0  0  0  0
   -5.1683    0.2031  -18.0765 C   0  0  0  0  0  0  0  0  0  0  0  0
   -4.7436    0.5404  -19.3944 C   0  0  0  0  0  0  0  0  0  0  0  0
   -3.6270    1.3885  -19.6364 C   0  0  0  0  0  0  0  0  0  0  0  0
   -3.2562    1.6966  -20.9192 C   0  0  0  0  0  0  0  0  0  0  0  0
   -3.9787    1.1708  -22.0089 C   0  0  0  0  0  0  0  0  0  0  0  0
   -5.0492    0.3301  -21.8012 C   0  0  0  0  0  0  0  0  0  0  0  0
   -5.4793    0.0127  -20.4815 C   0  0  0  0  0  0  0  0  0  0  0  0
   -5.5654   -0.0953  -22.6549 H   0  0  0  0  0  0  0  0  0  0  0  0
   -3.6634    1.4068  -23.0214 H   0  0  0  0  0  0  0  0  0  0  0  0
   -2.4019    2.3438  -21.1047 H   0  0  0  0  0  0  0  0  0  0  0  0
   -3.0896    1.7922  -18.7842 H   0  0  0  0  0  0  0  0  0  0  0  0
   -4.6193    0.6093  -17.2279 H   0  0  0  0  0  0  0  0  0  0  0  0
   -7.7703   -1.6619  -18.5972 H   0  0  0  0  0  0  0  0  0  0  0  0
   -8.5339   -0.5966  -21.6468 C   0  0  0  0  0  0  0  0  0  0  0  0
   -8.9217    0.4477  -21.1529 O   0  0  0  0  0  0  0  0  0  0  0  0
   -9.1344   -1.3229  -22.8756 C   0  0  1  0  0  0  0  0  0  0  0  0
   -8.7150   -0.5873  -24.1702 C   0  0  0  0  0  0  0  0  0  0  0  0
   -9.3174    0.7270  -24.2655 N   0  0  0  0  0  0  0  0  0  0  0  0
   -8.5185    1.7848  -24.8595 C   0  0  0  0  0  0  0  0  0  0  0  0
   -7.5649    2.4165  -23.8581 C   0  0  0  0  0  0  0  0  0  0  0  0
   -8.3048    3.2144  -22.8265 N   0  0  0  0  0  4  0  0  0  0  0  0
   -7.5052    3.3061  -21.5754 C   0  0  0  0  0  0  0  0  0  0  0  0
   -6.3472    4.2654  -21.6695 C   0  0  0  0  0  0  0  0  0  0  0  0
   -6.8022    5.5719  -21.9491 O   0  0  0  0  0  0  0  0  0  0  0  0
   -7.4428    5.5863  -23.2099 C   0  0  0  0  0  0  0  0  0  0  0  0
   -8.6527    4.6426  -23.2507 C   0  0  0  0  0  0  0  0  0  0  0  0
   -9.4065    5.0075  -22.5484 H   0  0  0  0  0  0  0  0  0  0  0  0
   -9.0725    4.6121  -24.2588 H   0  0  0  0  0  0  0  0  0  0  0  0
   -6.7181    5.3094  -23.9910 H   0  0  0  0  0  0  0  0  0  0  0  0
   -7.7650    6.6165  -23.3895 H   0  0  0  0  0  0  0  0  0  0  0  0
   -5.8877    4.2514  -20.6913 H   0  0  0  0  0  0  0  0  0  0  0  0
   -5.6076    3.9423  -22.4204 H   0  0  0  0  0  0  0  0  0  0  0  0
   -7.1498    2.3041  -21.3240 H   0  0  0  0  0  0  0  0  0  0  0  0
   -8.1610    3.6679  -20.7817 H   0  0  0  0  0  0  0  0  0  0  0  0
   -9.1684    2.6929  -22.5727 H   0  0  0  0  0  0  0  0  0  0  0  0
   -6.9943    1.6463  -23.3235 H   0  0  0  0  0  0  0  0  0  0  0  0
   -6.8442    3.0597  -24.3674 H   0  0  0  0  0  0  0  0  0  0  0  0
   -7.9325    1.3801  -25.6918 H   0  0  0  0  0  0  0  0  0  0  0  0
   -9.2130    2.5332  -25.2382 H   0  0  0  0  0  0  0  0  0  0  0  0
  -10.6649    0.8868  -24.1026 C   0  0  0  0  0  0  0  0  0  0  0  0
  -11.2694    1.8877  -24.4696 O   0  0  0  0  0  0  0  0  0  0  0  0
  -11.3672   -0.2368  -23.3920 C   0  0  0  0  0  0  0  0  0  0  0  0
  -12.7557   -0.1723  -23.2883 C   0  0  0  0  0  0  0  0  0  0  0  0
  -13.4463   -1.1155  -22.5533 C   0  0  0  0  0  0  0  0  0  0  0  0
  -12.7289   -2.1144  -21.8984 C   0  0  0  0  0  0  0  0  0  0  0  0
  -13.5813   -3.2476  -20.8897 Cl  0  0  0  0  0  0  0  0  0  0  0  0
  -11.3517   -2.1988  -21.9973 C   0  0  0  0  0  0  0  0  0  0  0  0
  -10.6503   -1.2841  -22.7921 C   0  0  0  0  0  0  0  0  0  0  0  0
  -10.8386   -2.9566  -21.4165 H   0  0  0  0  0  0  0  0  0  0  0  0
  -14.5238   -1.0685  -22.4540 H   0  0  0  0  0  0  0  0  0  0  0  0
  -13.2600    0.6519  -23.7800 H   0  0  0  0  0  0  0  0  0  0  0  0
   -7.6284   -0.4583  -24.1824 H   0  0  0  0  0  0  0  0  0  0  0  0
   -9.0070   -1.2051  -25.0353 H   0  0  0  0  0  0  0  0  0  0  0  0
   -6.9764   -3.3644  -21.2761 H   0  0  0  0  0  0  0  0  0  0  0  0
   -6.3018   -2.4039  -22.5991 H   0  0  0  0  0  0  0  0  0  0  0  0
   -9.1441   -3.3494  -22.1859 H   0  0  0  0  0  0  0  0  0  0  0  0
   -9.1002   -3.5775  -24.7116 H   0  0  0  0  0  0  0  0  0  0  0  0
   -7.4477   -2.9418  -24.7081 H   0  0  0  0  0  0  0  0  0  0  0  0
   -7.8020   -4.4783  -23.9160 H   0  0  0  0  0  0  0  0  0  0  0  0
  1  2  1  0
  2  3  1  0
  3  4  1  0
  4  5  1  0
  5  6  2  0
  6  7  1  0
  7  8  2  0
  8  9  1  0
  9 10  2  0
 10 11  1  0
 11 12  2  0
 12 13  1  0
 13 14  2  0
 13 15  1  0
 12 16  1  0
 11 17  1  0
 10 18  1  0
  8 19  1  0
  6 20  1  0
  4 21  1  0
 21 22  2  0
 21 23  1  0
 23 24  1  6
 24 25  1  0
 25 26  1  0
 26 27  1  0
 27 28  1  0
 28 29  1  0
 29 30  1  0
 30 31  1  0
 31 32  1  0
 32 33  1  0
 33 34  1  0
 33 35  1  0
 32 36  1  0
 32 37  1  0
 30 38  1  0
 30 39  1  0
 29 40  1  0
 29 41  1  0
 28 42  1  0
 27 43  1  0
 27 44  1  0
 26 45  1  0
 26 46  1  0
 25 47  1  0
 47 48  2  0
 47 49  1  0
 49 50  2  0
 50 51  1  0
 51 52  2  0
 52 53  1  0
 52 54  1  0
 54 55  2  0
 54 56  1  0
 51 57  1  0
 50 58  1  0
 24 59  1  0
 24 60  1  0
  3 61  1  0
  3 62  1  0
  2 63  1  1
  1 64  1  0
  1 65  1  0
  1 66  1  0
 23  2  1  0
 33 28  1  0
 55 49  1  0
 14  5  1  0
 55 23  1  0
 14  9  1  0
M  CHG  1  28   1
M  END
>  <cnnaffinities>  (74) 
[6.24415]

>  <score>  (74) 
6.24415

>  <index>  (74) 
76

>  <Smiles>  (74) 
C([C@]1(C(N(c2c(nc(c3c(c(c(c(c23)[H])[H])[H])[H])[H])[H])C(=O)[C@]21C(N(C(C([N+]1(C(C(OC(C1([H])[H])([H])[H])([H])[H])([H])[H])[H])([H])[H])([H])[H])C(=O)c1c(c(c(Cl)c(c21)[H])[H])[H])([H])[H])([H])[H])[H])([H])([H])[H]

>  <h>  (74) 
<NA>

>  <Training>  (74) 
True

>  <Success>  (74) 
True

>  <enamine_searched>  (74) 
False

>  <enamine_id>  (74) 
nan

$$$$

     RDKit          3D

 55 60  0  0  0  0  0  0  0  0999 V2000
  -10.4049   -1.0395  -23.3543 C   0  0  0  0  0  0  0  0  0  0  0  0
   -8.9751   -1.4053  -22.9827 C   0  0  1  0  0  0  0  0  0  0  0  0
   -8.3848   -0.4920  -21.8968 C   0  0  0  0  0  0  0  0  0  0  0  0
   -7.4028   -1.3443  -21.2472 N   0  0  0  0  0  0  0  0  0  0  0  0
   -6.5990   -0.8674  -20.1896 C   0  0  0  0  0  0  0  0  0  0  0  0
   -6.8986   -1.1646  -18.8865 C   0  0  0  0  0  0  0  0  0  0  0  0
   -6.2354   -0.6432  -17.8240 N   0  0  0  0  0  0  0  0  0  0  0  0
   -5.2387    0.1731  -18.0693 C   0  0  0  0  0  0  0  0  0  0  0  0
   -4.8030    0.5328  -19.3767 C   0  0  0  0  0  0  0  0  0  0  0  0
   -3.6901    1.3830  -19.6054 C   0  0  0  0  0  0  0  0  0  0  0  0
   -3.3301    1.7200  -20.8809 C   0  0  0  0  0  0  0  0  0  0  0  0
   -4.0583    1.2218  -21.9864 C   0  0  0  0  0  0  0  0  0  0  0  0
   -5.1127    0.3671  -21.7940 C   0  0  0  0  0  0  0  0  0  0  0  0
   -5.5127    0.0112  -20.4796 C   0  0  0  0  0  0  0  0  0  0  0  0
   -5.6419   -0.0583  -22.6419 H   0  0  0  0  0  0  0  0  0  0  0  0
   -3.7639    1.4988  -22.9944 H   0  0  0  0  0  0  0  0  0  0  0  0
   -2.4800    2.3721  -21.0592 H   0  0  0  0  0  0  0  0  0  0  0  0
   -3.1404    1.7621  -18.7475 H   0  0  0  0  0  0  0  0  0  0  0  0
   -4.7137    0.5934  -17.2092 H   0  0  0  0  0  0  0  0  0  0  0  0
   -7.7152   -1.8449  -18.6503 H   0  0  0  0  0  0  0  0  0  0  0  0
   -7.6242   -2.6915  -21.4495 C   0  0  0  0  0  0  0  0  0  0  0  0
   -6.9767   -3.5827  -20.9410 O   0  0  0  0  0  0  0  0  0  0  0  0
   -8.7985   -2.8597  -22.4185 C   0  0  1  0  0  0  0  0  0  0  0  0
  -10.0248   -3.3212  -21.5850 C   0  0  0  0  0  0  0  0  0  0  0  0
  -11.1318   -3.7615  -22.4093 N   0  0  0  0  0  0  0  0  0  0  0  0
  -12.5055   -3.6597  -21.9424 C   0  0  0  0  0  0  0  0  0  0  0  0
  -13.3276   -2.5417  -22.4948 C   0  0  0  0  0  0  0  0  0  0  0  0
  -14.0338   -2.5448  -23.6404 C   0  0  0  0  0  0  0  0  0  0  0  0
  -14.7580   -1.3937  -23.7064 O   0  0  0  0  0  0  0  0  0  0  0  0
  -14.4606   -0.7512  -22.5613 C   0  0  0  0  0  0  0  0  0  0  0  0
  -13.6294   -1.3778  -21.7926 N   0  0  0  0  0  0  0  0  0  0  0  0
  -14.9475    0.2033  -22.3974 H   0  0  0  0  0  0  0  0  0  0  0  0
  -14.1474   -3.2470  -24.4500 H   0  0  0  0  0  0  0  0  0  0  0  0
  -12.5239   -3.5843  -20.8577 H   0  0  0  0  0  0  0  0  0  0  0  0
  -12.9878   -4.5911  -22.2459 H   0  0  0  0  0  0  0  0  0  0  0  0
  -10.9268   -4.5028  -23.5376 C   0  0  0  0  0  0  0  0  0  0  0  0
  -11.8651   -4.9668  -24.1687 O   0  0  0  0  0  0  0  0  0  0  0  0
   -9.5140   -4.7044  -23.9753 C   0  0  0  0  0  0  0  0  0  0  0  0
   -9.2516   -5.7062  -24.9119 C   0  0  0  0  0  0  0  0  0  0  0  0
   -7.9710   -5.9003  -25.4006 C   0  0  0  0  0  0  0  0  0  0  0  0
   -6.9669   -5.0476  -24.9469 C   0  0  0  0  0  0  0  0  0  0  0  0
   -5.7220   -5.1957  -25.4302 F   0  0  0  0  0  0  0  0  0  0  0  0
   -7.1878   -4.0797  -23.9838 C   0  0  0  0  0  0  0  0  0  0  0  0
   -8.4853   -3.9001  -23.4766 C   0  0  0  0  0  0  0  0  0  0  0  0
   -6.3441   -3.5191  -23.5881 H   0  0  0  0  0  0  0  0  0  0  0  0
   -7.7303   -6.6960  -26.1023 H   0  0  0  0  0  0  0  0  0  0  0  0
  -10.0707   -6.3439  -25.2354 H   0  0  0  0  0  0  0  0  0  0  0  0
  -10.3830   -2.4909  -20.9741 H   0  0  0  0  0  0  0  0  0  0  0  0
   -9.6989   -4.1107  -20.9010 H   0  0  0  0  0  0  0  0  0  0  0  0
   -9.1587   -0.1583  -21.1857 H   0  0  0  0  0  0  0  0  0  0  0  0
   -7.9234    0.4160  -22.2994 H   0  0  0  0  0  0  0  0  0  0  0  0
   -8.3288   -1.3404  -23.8701 H   0  0  0  0  0  0  0  0  0  0  0  0
  -10.4717   -0.0688  -23.8491 H   0  0  0  0  0  0  0  0  0  0  0  0
  -10.8326   -1.7997  -24.0137 H   0  0  0  0  0  0  0  0  0  0  0  0
  -11.0275   -0.9946  -22.4559 H   0  0  0  0  0  0  0  0  0  0  0  0
  1  2  1  0
  2  3  1  0
  3  4  1  0
  4  5  1  0
  5  6  2  0
  6  7  1  0
  7  8  2  0
  8  9  1  0
  9 10  2  0
 10 11  1  0
 11 12  2  0
 12 13  1  0
 13 14  2  0
 13 15  1  0
 12 16  1  0
 11 17  1  0
 10 18  1  0
  8 19  1  0
  6 20  1  0
  4 21  1  0
 21 22  2  0
 21 23  1  0
 23 24  1  1
 24 25  1  0
 25 26  1  0
 26 27  1  0
 27 28  2  0
 28 29  1  0
 29 30  1  0
 30 31  2  0
 30 32  1  0
 28 33  1  0
 26 34  1  0
 26 35  1  0
 25 36  1  0
 36 37  2  0
 36 38  1  0
 38 39  2  0
 39 40  1  0
 40 41  2  0
 41 42  1  0
 41 43  1  0
 43 44  2  0
 43 45  1  0
 40 46  1  0
 39 47  1  0
 24 48  1  0
 24 49  1  0
  3 50  1  0
  3 51  1  0
  2 52  1  6
  1 53  1  0
  1 54  1  0
  1 55  1  0
 23  2  1  0
 31 27  1  0
 44 38  1  0
 14  5  1  0
 44 23  1  0
 14  9  1  0
M  END
>  <cnnaffinities>  (75) 
[6.41807]

>  <score>  (75) 
6.41807

>  <index>  (75) 
77

>  <Smiles>  (75) 
C([C@]1(C(N(c2c(nc(c3c(c(c(c(c23)[H])[H])[H])[H])[H])[H])C(=O)[C@]21C(N(C(c1c(oc(n1)[H])[H])([H])[H])C(=O)c1c(c(c(F)c(c21)[H])[H])[H])([H])[H])([H])[H])[H])([H])([H])[H]

>  <h>  (75) 
<NA>

>  <Training>  (75) 
True

>  <Success>  (75) 
True

>  <enamine_searched>  (75) 
False

>  <enamine_id>  (75) 
nan

$$$$

     RDKit          3D

 56 60  0  0  0  0  0  0  0  0999 V2000
  -14.5514   -1.4487  -23.9287 C   0  0  0  0  0  0  0  0  0  0  0  0
  -13.7368   -2.5556  -23.4714 N   0  0  0  0  0  0  0  0  0  0  0  0
  -13.3788   -2.6223  -22.1573 C   0  0  0  0  0  0  0  0  0  0  0  0
  -13.7649   -1.8033  -21.3396 O   0  0  0  0  0  0  0  0  0  0  0  0
  -12.4988   -3.8109  -21.7835 C   0  0  0  0  0  0  0  0  0  0  0  0
  -11.1556   -3.7854  -22.3432 N   0  0  0  0  0  0  0  0  0  0  0  0
  -10.0333   -3.3080  -21.5424 C   0  0  0  0  0  0  0  0  0  0  0  0
   -8.8157   -2.8612  -22.3878 C   0  0  2  0  0  0  0  0  0  0  0  0
   -7.6375   -2.6933  -21.4236 C   0  0  0  0  0  0  0  0  0  0  0  0
   -6.9946   -3.5825  -20.9031 O   0  0  0  0  0  0  0  0  0  0  0  0
   -7.3938   -1.3485  -21.2430 N   0  0  0  0  0  0  0  0  0  0  0  0
   -6.5882   -0.8771  -20.1857 C   0  0  0  0  0  0  0  0  0  0  0  0
   -6.8928   -1.1642  -18.8797 C   0  0  0  0  0  0  0  0  0  0  0  0
   -6.2337   -0.6365  -17.8195 N   0  0  0  0  0  0  0  0  0  0  0  0
   -5.2308    0.1738  -18.0671 C   0  0  0  0  0  0  0  0  0  0  0  0
   -4.7927    0.5262  -19.3763 C   0  0  0  0  0  0  0  0  0  0  0  0
   -3.6833    1.3833  -19.6050 C   0  0  0  0  0  0  0  0  0  0  0  0
   -3.3243    1.7123  -20.8858 C   0  0  0  0  0  0  0  0  0  0  0  0
   -4.0482    1.2047  -21.9883 C   0  0  0  0  0  0  0  0  0  0  0  0
   -5.1053    0.3514  -21.7924 C   0  0  0  0  0  0  0  0  0  0  0  0
   -5.5014    0.0013  -20.4742 C   0  0  0  0  0  0  0  0  0  0  0  0
   -5.6355   -0.0793  -22.6345 H   0  0  0  0  0  0  0  0  0  0  0  0
   -3.7490    1.4675  -22.9993 H   0  0  0  0  0  0  0  0  0  0  0  0
   -2.4738    2.3632  -21.0664 H   0  0  0  0  0  0  0  0  0  0  0  0
   -3.1344    1.7678  -18.7502 H   0  0  0  0  0  0  0  0  0  0  0  0
   -4.7083    0.5923  -17.2077 H   0  0  0  0  0  0  0  0  0  0  0  0
   -7.7162   -1.8357  -18.6421 H   0  0  0  0  0  0  0  0  0  0  0  0
   -8.3773   -0.4932  -21.8878 C   0  0  0  0  0  0  0  0  0  0  0  0
   -8.9766   -1.4082  -22.9650 C   0  0  2  0  0  0  0  0  0  0  0  0
  -10.3950   -1.0201  -23.3637 C   0  0  0  0  0  0  0  0  0  0  0  0
  -11.0563   -1.0151  -22.4893 H   0  0  0  0  0  0  0  0  0  0  0  0
  -10.4399   -0.0250  -23.8153 H   0  0  0  0  0  0  0  0  0  0  0  0
  -10.7852   -1.7431  -24.0849 H   0  0  0  0  0  0  0  0  0  0  0  0
   -8.3217   -1.3639  -23.8472 H   0  0  0  0  0  0  0  0  0  0  0  0
   -7.9111    0.4095  -22.2967 H   0  0  0  0  0  0  0  0  0  0  0  0
   -9.1414   -0.1539  -21.1692 H   0  0  0  0  0  0  0  0  0  0  0  0
   -8.5206   -3.9090  -23.4357 C   0  0  0  0  0  0  0  0  0  0  0  0
   -7.2341   -4.0699  -23.9717 C   0  0  0  0  0  0  0  0  0  0  0  0
   -7.0100   -5.0254  -24.9500 C   0  0  0  0  0  0  0  0  0  0  0  0
   -5.4090   -5.2112  -25.6212 Cl  0  0  0  0  0  0  0  0  0  0  0  0
   -8.0354   -5.8719  -25.3782 C   0  0  0  0  0  0  0  0  0  0  0  0
   -9.3134   -5.6895  -24.8829 C   0  0  0  0  0  0  0  0  0  0  0  0
   -9.5534   -4.7052  -23.9275 C   0  0  0  0  0  0  0  0  0  0  0  0
  -10.9569   -4.5129  -23.4813 C   0  0  0  0  0  0  0  0  0  0  0  0
  -11.8964   -4.9760  -24.1150 O   0  0  0  0  0  0  0  0  0  0  0  0
  -10.1525   -6.2957  -25.2207 H   0  0  0  0  0  0  0  0  0  0  0  0
   -7.8267   -6.6668  -26.0852 H   0  0  0  0  0  0  0  0  0  0  0  0
   -6.3990   -3.4956  -23.5846 H   0  0  0  0  0  0  0  0  0  0  0  0
   -9.7040   -4.0937  -20.8546 H   0  0  0  0  0  0  0  0  0  0  0  0
  -10.3375   -2.4386  -20.9488 H   0  0  0  0  0  0  0  0  0  0  0  0
  -13.0110   -4.6786  -22.2081 H   0  0  0  0  0  0  0  0  0  0  0  0
  -12.4477   -3.8841  -20.6951 H   0  0  0  0  0  0  0  0  0  0  0  0
  -13.3832   -3.2139  -24.1521 H   0  0  0  0  0  0  0  0  0  0  0  0
  -14.0010   -0.5018  -23.9661 H   0  0  0  0  0  0  0  0  0  0  0  0
  -14.9449   -1.6843  -24.9208 H   0  0  0  0  0  0  0  0  0  0  0  0
  -15.3797   -1.2746  -23.2428 H   0  0  0  0  0  0  0  0  0  0  0  0
  1  2  1  0
  2  3  1  0
  3  4  2  0
  3  5  1  0
  5  6  1  0
  6  7  1  0
  8  7  1  1
  8  9  1  0
  9 10  2  0
  9 11  1  0
 11 12  1  0
 12 13  2  0
 13 14  1  0
 14 15  2  0
 15 16  1  0
 16 17  2  0
 17 18  1  0
 18 19  2  0
 19 20  1  0
 20 21  2  0
 20 22  1  0
 19 23  1  0
 18 24  1  0
 17 25  1  0
 15 26  1  0
 13 27  1  0
 11 28  1  0
 28 29  1  0
 29 30  1  0
 30 31  1  0
 30 32  1  0
 30 33  1  0
 29 34  1  6
 28 35  1  0
 28 36  1  0
  8 37  1  0
 37 38  2  0
 38 39  1  0
 39 40  1  0
 39 41  2  0
 41 42  1  0
 42 43  2  0
 43 44  1  0
 44 45  2  0
 42 46  1  0
 41 47  1  0
 38 48  1  0
  7 49  1  0
  7 50  1  0
  5 51  1  0
  5 52  1  0
  2 53  1  0
  1 54  1  0
  1 55  1  0
  1 56  1  0
 44  6  1  0
 29  8  1  0
 43 37  1  0
 21 12  1  0
 21 16  1  0
M  END
>  <cnnaffinities>  (76) 
[6.11303]

>  <score>  (76) 
6.11303

>  <index>  (76) 
78

>  <Smiles>  (76) 
C(N(C(=O)C(N1C([C@@]2(C(=O)N(c3c(nc(c4c(c(c(c(c34)[H])[H])[H])[H])[H])[H])C([C@@]2(C([H])([H])[H])[H])([H])[H])c2c(c(Cl)c(c(c2C1=O)[H])[H])[H])([H])[H])([H])[H])[H])([H])([H])[H]

>  <h>  (76) 
<NA>

>  <Training>  (76) 
True

>  <Success>  (76) 
True

>  <enamine_searched>  (76) 
False

>  <enamine_id>  (76) 
nan

$$$$

     RDKit          3D

 45 49  0  0  0  0  0  0  0  0999 V2000
  -10.5547   -2.7535  -22.4763 C   0  0  0  0  0  0  0  0  0  0  0  0
   -9.1622   -2.4786  -22.1635 N   0  0  0  0  0  0  0  0  0  0  0  0
   -8.7604   -1.4109  -21.3987 C   0  0  0  0  0  0  0  0  0  0  0  0
   -9.4473   -0.4987  -21.0022 O   0  0  0  0  0  0  0  0  0  0  0  0
   -7.3622   -1.5485  -21.2144 N   0  0  0  0  0  0  0  0  0  0  0  0
   -6.5982   -0.8719  -20.2008 C   0  0  0  0  0  0  0  0  0  0  0  0
   -6.9097   -1.0662  -18.8773 C   0  0  0  0  0  0  0  0  0  0  0  0
   -6.2126   -0.5528  -17.8310 N   0  0  0  0  0  0  0  0  0  0  0  0
   -5.1785    0.2042  -18.0957 C   0  0  0  0  0  0  0  0  0  0  0  0
   -4.7509    0.5233  -19.4120 C   0  0  0  0  0  0  0  0  0  0  0  0
   -3.6213    1.3625  -19.6344 C   0  0  0  0  0  0  0  0  0  0  0  0
   -3.2396    1.6773  -20.9073 C   0  0  0  0  0  0  0  0  0  0  0  0
   -3.9822    1.1761  -21.9999 C   0  0  0  0  0  0  0  0  0  0  0  0
   -5.0639    0.3532  -21.8101 C   0  0  0  0  0  0  0  0  0  0  0  0
   -5.4815   -0.0126  -20.5011 C   0  0  0  0  0  0  0  0  0  0  0  0
   -5.5982   -0.0439  -22.6654 H   0  0  0  0  0  0  0  0  0  0  0  0
   -3.6606    1.4125  -23.0089 H   0  0  0  0  0  0  0  0  0  0  0  0
   -2.3723    2.3068  -21.0918 H   0  0  0  0  0  0  0  0  0  0  0  0
   -3.0809    1.7553  -18.7758 H   0  0  0  0  0  0  0  0  0  0  0  0
   -4.6271    0.6089  -17.2449 H   0  0  0  0  0  0  0  0  0  0  0  0
   -7.7572   -1.6854  -18.5999 H   0  0  0  0  0  0  0  0  0  0  0  0
   -6.8572   -2.5351  -22.0603 C   0  0  0  0  0  0  0  0  0  0  0  0
   -5.6924   -2.8162  -22.2198 O   0  0  0  0  0  0  0  0  0  0  0  0
   -8.0533   -3.1757  -22.7546 C   0  0  0  0  0  0  0  0  0  0  0  0
   -8.0405   -4.7171  -22.7412 C   0  0  0  0  0  0  0  0  0  0  0  0
   -7.9239   -4.7433  -24.2413 N   0  0  0  0  0  0  0  0  0  0  0  0
   -9.1819   -5.5871  -25.0013 S   0  0  0  0  0  0  0  0  0  0  0  0
  -10.4362   -4.9272  -24.6462 O   0  0  0  0  0  0  0  0  0  0  0  0
   -8.9646   -6.9830  -24.6975 O   0  0  0  0  0  0  0  0  0  0  0  0
   -8.9807   -5.3250  -26.7489 C   0  0  0  0  0  0  0  0  0  0  0  0
  -10.2099   -5.6130  -27.5804 C   0  0  0  0  0  0  0  0  0  0  0  0
   -9.7512   -4.1982  -27.3911 C   0  0  0  0  0  0  0  0  0  0  0  0
   -9.2765   -3.6982  -28.2314 H   0  0  0  0  0  0  0  0  0  0  0  0
  -10.3335   -3.5496  -26.7358 H   0  0  0  0  0  0  0  0  0  0  0  0
  -10.0638   -6.0857  -28.5503 H   0  0  0  0  0  0  0  0  0  0  0  0
  -11.0940   -5.9546  -27.0438 H   0  0  0  0  0  0  0  0  0  0  0  0
   -7.9962   -5.6084  -27.1118 H   0  0  0  0  0  0  0  0  0  0  0  0
   -7.9796   -3.2600  -24.3029 C   0  0  0  0  0  0  0  0  0  0  0  0
   -8.8418   -2.8483  -24.8391 H   0  0  0  0  0  0  0  0  0  0  0  0
   -7.0574   -2.8645  -24.7243 H   0  0  0  0  0  0  0  0  0  0  0  0
   -7.1539   -5.1379  -22.2681 H   0  0  0  0  0  0  0  0  0  0  0  0
   -8.9464   -5.1736  -22.3326 H   0  0  0  0  0  0  0  0  0  0  0  0
  -10.7561   -2.5949  -23.5433 H   0  0  0  0  0  0  0  0  0  0  0  0
  -10.8221   -3.7878  -22.2216 H   0  0  0  0  0  0  0  0  0  0  0  0
  -11.1474   -2.0599  -21.8791 H   0  0  0  0  0  0  0  0  0  0  0  0
  1  2  1  0
  2  3  1  0
  3  4  2  0
  3  5  1  0
  5  6  1  0
  6  7  2  0
  7  8  1  0
  8  9  2  0
  9 10  1  0
 10 11  2  0
 11 12  1  0
 12 13  2  0
 13 14  1  0
 14 15  2  0
 14 16  1  0
 13 17  1  0
 12 18  1  0
 11 19  1  0
  9 20  1  0
  7 21  1  0
  5 22  1  0
 22 23  2  0
 22 24  1  0
 24 25  1  0
 25 26  1  0
 26 27  1  0
 27 28  2  0
 27 29  2  0
 27 30  1  0
 30 31  1  0
 31 32  1  0
 32 33  1  0
 32 34  1  0
 31 35  1  0
 31 36  1  0
 30 37  1  0
 26 38  1  0
 38 39  1  0
 38 40  1  0
 25 41  1  0
 25 42  1  0
  1 43  1  0
  1 44  1  0
  1 45  1  0
 24  2  1  0
 32 30  1  0
 15  6  1  0
 38 24  1  0
 15 10  1  0
M  END
>  <cnnaffinities>  (77) 
[4.73194, 4.72367, 4.69879, 4.95479, 4.95298, 4.71194, 5.04172, 5.13898]

>  <score>  (77) 
4.73194

>  <index>  (77) 
79

>  <Smiles>  (77) 
C(N1C(=O)N(c2c(nc(c3c(c(c(c(c23)[H])[H])[H])[H])[H])[H])C(=O)C21C(N(S(=O)(=O)C1(C(C1([H])[H])([H])[H])[H])C2([H])[H])([H])[H])([H])([H])[H]

>  <h>  (77) 
<NA>

>  <Training>  (77) 
True

>  <Success>  (77) 
True

>  <enamine_searched>  (77) 
False

>  <enamine_id>  (77) 
nan

$$$$

     RDKit          3D

 60 65  0  0  0  0  0  0  0  0999 V2000
   -2.6827   -6.7795  -22.7296 C   0  0  0  0  0  0  0  0  0  0  0  0
   -3.9431   -6.1783  -22.2737 N   0  0  0  0  0  0  0  0  0  0  0  0
   -4.9911   -6.9952  -22.0119 C   0  0  0  0  0  0  0  0  0  0  0  0
   -4.9323   -8.1871  -22.0316 O   0  0  0  0  0  0  0  0  0  0  0  0
   -6.6681   -6.0252  -21.4826 C   0  0  0  0  0  0  0  0  0  0  0  0
   -7.5020   -5.5013  -22.5769 N   0  0  0  0  0  0  0  0  0  0  0  0
   -8.4604   -4.4276  -22.3511 C   0  0  0  0  0  0  0  0  0  0  0  0
   -7.9849   -3.0476  -22.8687 C   0  0  2  0  0  0  0  0  0  0  0  0
   -6.8334   -2.4939  -22.0000 C   0  0  0  0  0  0  0  0  0  0  0  0
   -5.6767   -2.8689  -22.0148 O   0  0  0  0  0  0  0  0  0  0  0  0
   -7.3218   -1.4736  -21.2107 N   0  0  0  0  0  0  0  0  0  0  0  0
   -6.5633   -0.8680  -20.1848 C   0  0  0  0  0  0  0  0  0  0  0  0
   -6.9022   -1.0733  -18.8718 C   0  0  0  0  0  0  0  0  0  0  0  0
   -6.2276   -0.5664  -17.8127 N   0  0  0  0  0  0  0  0  0  0  0  0
   -5.1927    0.1976  -18.0707 C   0  0  0  0  0  0  0  0  0  0  0  0
   -4.7503    0.5193  -19.3861 C   0  0  0  0  0  0  0  0  0  0  0  0
   -3.6331    1.3685  -19.6086 C   0  0  0  0  0  0  0  0  0  0  0  0
   -3.2651    1.7043  -20.8821 C   0  0  0  0  0  0  0  0  0  0  0  0
   -3.9954    1.2148  -21.9874 C   0  0  0  0  0  0  0  0  0  0  0  0
   -5.0600    0.3691  -21.8011 C   0  0  0  0  0  0  0  0  0  0  0  0
   -5.4592   -0.0082  -20.4873 C   0  0  0  0  0  0  0  0  0  0  0  0
   -5.6021   -0.0250  -22.6553 H   0  0  0  0  0  0  0  0  0  0  0  0
   -3.6883    1.4891  -22.9932 H   0  0  0  0  0  0  0  0  0  0  0  0
   -2.4118    2.3541  -21.0546 H   0  0  0  0  0  0  0  0  0  0  0  0
   -3.0956    1.7558  -18.7468 H   0  0  0  0  0  0  0  0  0  0  0  0
   -4.6497    0.6088  -17.2189 H   0  0  0  0  0  0  0  0  0  0  0  0
   -7.7487   -1.7146  -18.6312 H   0  0  0  0  0  0  0  0  0  0  0  0
   -8.7643   -1.3390  -21.2917 C   0  0  0  0  0  0  0  0  0  0  0  0
   -9.1066   -1.9860  -22.6432 C   0  0  2  0  0  0  0  0  0  0  0  0
  -10.5464   -2.4944  -22.6851 C   0  0  0  0  0  0  0  0  0  0  0  0
  -10.7559   -3.1731  -21.8495 H   0  0  0  0  0  0  0  0  0  0  0  0
  -11.2539   -1.6640  -22.6076 H   0  0  0  0  0  0  0  0  0  0  0  0
  -10.7564   -3.0357  -23.6134 H   0  0  0  0  0  0  0  0  0  0  0  0
   -8.9871   -1.2185  -23.4102 H   0  0  0  0  0  0  0  0  0  0  0  0
   -9.0549   -0.2849  -21.2435 H   0  0  0  0  0  0  0  0  0  0  0  0
   -9.2691   -1.8728  -20.4734 H   0  0  0  0  0  0  0  0  0  0  0  0
   -7.4887   -3.2441  -24.2894 C   0  0  0  0  0  0  0  0  0  0  0  0
   -7.3617   -2.1383  -25.1377 C   0  0  0  0  0  0  0  0  0  0  0  0
   -6.9249   -2.3033  -26.4375 C   0  0  0  0  0  0  0  0  0  0  0  0
   -6.8140   -0.9090  -27.4724 Cl  0  0  0  0  0  0  0  0  0  0  0  0
   -6.5702   -3.5584  -26.9322 C   0  0  0  0  0  0  0  0  0  0  0  0
   -6.6251   -4.6460  -26.0788 C   0  0  0  0  0  0  0  0  0  0  0  0
   -7.0563   -4.5015  -24.7492 C   0  0  0  0  0  0  0  0  0  0  0  0
   -6.9606   -5.6751  -23.8218 C   0  0  0  0  0  0  0  0  0  0  0  0
   -6.3994   -6.7148  -24.1356 O   0  0  0  0  0  0  0  0  0  0  0  0
   -6.3261   -5.6294  -26.4340 H   0  0  0  0  0  0  0  0  0  0  0  0
   -6.2462   -3.6606  -27.9656 H   0  0  0  0  0  0  0  0  0  0  0  0
   -7.5957   -1.1378  -24.7916 H   0  0  0  0  0  0  0  0  0  0  0  0
   -9.4003   -4.7024  -22.8511 H   0  0  0  0  0  0  0  0  0  0  0  0
   -8.6404   -4.3739  -21.2785 H   0  0  0  0  0  0  0  0  0  0  0  0
   -6.9541   -6.2891  -21.3217 C   0  0  0  0  0  0  0  0  0  0  0  0
   -5.9718   -5.3870  -20.3812 C   0  0  0  0  0  0  0  0  0  0  0  0
   -5.4861   -6.0724  -19.7441 H   0  0  0  0  0  0  0  0  0  0  0  0
   -6.5019   -4.5257  -20.0540 H   0  0  0  0  0  0  0  0  0  0  0  0
   -7.8689   -6.4809  -20.7573 H   0  0  0  0  0  0  0  0  0  0  0  0
   -7.2445   -7.3922  -21.5263 H   0  0  0  0  0  0  0  0  0  0  0  0
   -4.0343   -5.1679  -22.3099 H   0  0  0  0  0  0  0  0  0  0  0  0
   -2.3425   -7.5266  -22.0077 H   0  0  0  0  0  0  0  0  0  0  0  0
   -2.8152   -7.3008  -23.6824 H   0  0  0  0  0  0  0  0  0  0  0  0
   -1.9227   -6.0043  -22.8356 H   0  0  0  0  0  0  0  0  0  0  0  0
  1  2  1  0
  2  3  1  0
  3  4  2  0
  3  5  1  0
  5  6  1  0
  6  7  1  0
  8  7  1  1
  8  9  1  0
  9 10  2  0
  9 11  1  0
 11 12  1  0
 12 13  2  0
 13 14  1  0
 14 15  2  0
 15 16  1  0
 16 17  2  0
 17 18  1  0
 18 19  2  0
 19 20  1  0
 20 21  2  0
 20 22  1  0
 19 23  1  0
 18 24  1  0
 17 25  1  0
 15 26  1  0
 13 27  1  0
 11 28  1  0
 28 29  1  0
 29 30  1  0
 30 31  1  0
 30 32  1  0
 30 33  1  0
 29 34  1  6
 28 35  1  0
 28 36  1  0
  8 37  1  0
 37 38  2  0
 38 39  1  0
 39 40  1  0
 39 41  2  0
 41 42  1  0
 42 43  2  0
 43 44  1  0
 44 45  2  0
 42 46  1  0
 41 47  1  0
 38 48  1  0
  7 49  1  0
  7 50  1  0
  5 51  1  0
 51 52  1  0
 52 53  1  0
 52 54  1  0
 51 55  1  0
 51 56  1  0
  2 57  1  0
  1 58  1  0
  1 59  1  0
  1 60  1  0
 52  5  1  0
 44  6  1  0
 29  8  1  0
 43 37  1  0
 21 12  1  0
 21 16  1  0
M  END
>  <cnnaffinities>  (78) 
[5.08407]

>  <score>  (78) 
5.08407

>  <index>  (78) 
80

>  <Smiles>  (78) 
C(N(C(=O)C1(N2C([C@@]3(C(=O)N(c4c(nc(c5c(c(c(c(c45)[H])[H])[H])[H])[H])[H])C([C@@]3(C([H])([H])[H])[H])([H])[H])c3c(c(Cl)c(c(c3C2=O)[H])[H])[H])([H])[H])C(C1([H])[H])([H])[H])[H])([H])([H])[H]

>  <h>  (78) 
<NA>

>  <Training>  (78) 
True

>  <Success>  (78) 
True

>  <enamine_searched>  (78) 
False

>  <enamine_id>  (78) 
nan

$$$$

     RDKit          3D

 36 38  0  0  0  0  0  0  0  0999 V2000
   -8.5056    0.7106  -21.4630 O   0  0  0  0  0  0  0  0  0  0  0  0
   -8.3855   -0.4018  -21.9335 C   0  0  0  0  0  0  0  0  0  0  0  0
   -7.4389   -1.4333  -21.2762 C   0  0  0  0  0  0  0  0  0  0  0  0
   -6.5827   -0.8290  -20.1849 C   0  0  0  0  0  0  0  0  0  0  0  0
   -6.8795   -1.0401  -18.8636 C   0  0  0  0  0  0  0  0  0  0  0  0
   -6.1915   -0.5411  -17.8013 N   0  0  0  0  0  0  0  0  0  0  0  0
   -5.1570    0.2204  -18.0652 C   0  0  0  0  0  0  0  0  0  0  0  0
   -4.7261    0.5349  -19.3809 C   0  0  0  0  0  0  0  0  0  0  0  0
   -3.6003    1.3664  -19.6189 C   0  0  0  0  0  0  0  0  0  0  0  0
   -3.2193    1.6685  -20.8985 C   0  0  0  0  0  0  0  0  0  0  0  0
   -3.9579    1.1566  -21.9881 C   0  0  0  0  0  0  0  0  0  0  0  0
   -5.0368    0.3311  -21.7853 C   0  0  0  0  0  0  0  0  0  0  0  0
   -5.4570    0.0013  -20.4716 C   0  0  0  0  0  0  0  0  0  0  0  0
   -5.5762   -0.0674  -22.6376 H   0  0  0  0  0  0  0  0  0  0  0  0
   -3.6300    1.3785  -22.9986 H   0  0  0  0  0  0  0  0  0  0  0  0
   -2.3548    2.2996  -21.0885 H   0  0  0  0  0  0  0  0  0  0  0  0
   -3.0575    1.7749  -18.7699 H   0  0  0  0  0  0  0  0  0  0  0  0
   -4.6026    0.6264  -17.2164 H   0  0  0  0  0  0  0  0  0  0  0  0
   -7.7293   -1.6595  -18.5857 H   0  0  0  0  0  0  0  0  0  0  0  0
   -6.8026   -1.8992  -22.0410 H   0  0  0  0  0  0  0  0  0  0  0  0
   -8.0414   -2.2449  -20.8448 H   0  0  0  0  0  0  0  0  0  0  0  0
   -9.0618   -0.7716  -23.0890 N   0  0  0  0  0  0  0  0  0  0  0  0
  -10.0067    0.1958  -23.6422 C   0  0  0  0  0  0  0  0  0  0  0  0
  -11.3807    0.2151  -23.0207 C   0  0  0  0  0  0  0  0  0  0  0  0
  -12.0212   -0.7916  -22.4172 C   0  0  0  0  0  0  0  0  0  0  0  0
  -11.5707   -2.1754  -22.1563 C   0  0  0  0  0  0  0  0  0  0  0  0
  -10.4472   -2.7809  -22.5514 C   0  0  0  0  0  0  0  0  0  0  0  0
   -9.3680   -2.1603  -23.4043 C   0  0  0  0  0  0  0  0  0  0  0  0
   -8.4502   -2.7533  -23.3596 H   0  0  0  0  0  0  0  0  0  0  0  0
   -9.6841   -2.1755  -24.4538 H   0  0  0  0  0  0  0  0  0  0  0  0
  -10.2825   -3.8157  -22.2474 H   0  0  0  0  0  0  0  0  0  0  0  0
  -12.2763   -2.7634  -21.5728 H   0  0  0  0  0  0  0  0  0  0  0  0
  -13.0197   -0.5776  -22.0387 H   0  0  0  0  0  0  0  0  0  0  0  0
  -11.8929    1.1788  -23.0806 H   0  0  0  0  0  0  0  0  0  0  0  0
  -10.1130   -0.0406  -24.7076 H   0  0  0  0  0  0  0  0  0  0  0  0
   -9.5583    1.1916  -23.5950 H   0  0  0  0  0  0  0  0  0  0  0  0
  1  2  2  0
  2  3  1  0
  3  4  1  0
  4  5  2  0
  5  6  1  0
  6  7  2  0
  7  8  1  0
  8  9  2  0
  9 10  1  0
 10 11  2  0
 11 12  1  0
 12 13  2  0
 12 14  1  0
 11 15  1  0
 10 16  1  0
  9 17  1  0
  7 18  1  0
  5 19  1  0
  3 20  1  0
  3 21  1  0
  2 22  1  0
 22 23  1  0
 23 24  1  0
 24 25  2  0
 25 26  1  0
 26 27  2  0
 27 28  1  0
 28 29  1  0
 28 30  1  0
 27 31  1  0
 26 32  1  0
 25 33  1  0
 24 34  1  0
 23 35  1  0
 23 36  1  0
 13  4  1  0
 28 22  1  0
 13  8  1  0
M  END
>  <cnnaffinities>  (79) 
[3.97211, 3.97213, 4.51481, 4.51341]

>  <score>  (79) 
3.97211

>  <index>  (79) 
81

>  <Smiles>  (79) 
O=C(C(c1c(nc(c2c(c(c(c(c12)[H])[H])[H])[H])[H])[H])([H])[H])N1C(C(=C(C(=C(C1([H])[H])[H])[H])[H])[H])([H])[H]

>  <h>  (79) 
<NA>

>  <Training>  (79) 
True

>  <Success>  (79) 
True

>  <enamine_searched>  (79) 
False

>  <enamine_id>  (79) 
nan

$$$$

     RDKit          3D

 54 57  0  0  0  0  0  0  0  0999 V2000
  -10.6602    0.3532  -25.3471 C   0  0  0  0  0  0  0  0  0  0  0  0
   -9.7757   -0.6067  -24.8393 O   0  0  0  0  0  0  0  0  0  0  0  0
   -8.4674   -0.5219  -25.1918 C   0  0  0  0  0  0  0  0  0  0  0  0
   -7.9452    0.5045  -25.9792 C   0  0  0  0  0  0  0  0  0  0  0  0
   -6.5779    0.5364  -26.2423 C   0  0  0  0  0  0  0  0  0  0  0  0
   -5.7561   -0.4556  -25.7248 C   0  0  0  0  0  0  0  0  0  0  0  0
   -6.2978   -1.4790  -24.9435 C   0  0  0  0  0  0  0  0  0  0  0  0
   -7.6563   -1.5489  -24.6744 C   0  0  0  0  0  0  0  0  0  0  0  0
   -8.3035   -2.6612  -23.8358 C   0  0  1  0  0  0  0  0  0  0  0  0
   -9.1475   -3.6438  -24.6853 C   0  0  0  0  0  0  0  0  0  0  0  0
   -8.4063   -4.8547  -25.2702 C   0  0  1  0  0  0  0  0  0  0  0  0
   -7.5039   -4.5294  -26.4661 C   0  0  0  0  0  0  0  0  0  0  0  0
   -6.6803   -3.8622  -26.1913 H   0  0  0  0  0  0  0  0  0  0  0  0
   -7.0703   -5.4459  -26.8848 H   0  0  0  0  0  0  0  0  0  0  0  0
   -8.0769   -4.0374  -27.2608 H   0  0  0  0  0  0  0  0  0  0  0  0
   -7.6732   -5.5508  -24.1195 C   0  0  0  0  0  0  0  0  0  0  0  0
   -6.7147   -4.6059  -23.4043 C   0  0  0  0  0  0  0  0  0  0  0  0
   -7.3604   -3.3670  -22.9607 N   0  0  0  0  0  0  0  0  0  0  0  0
   -6.7464   -2.7516  -21.8873 C   0  0  0  0  0  0  0  0  0  0  0  0
   -5.7330   -3.2177  -21.3938 O   0  0  0  0  0  0  0  0  0  0  0  0
   -7.3972   -1.4854  -21.2917 C   0  0  0  0  0  0  0  0  0  0  0  0
   -6.5750   -0.8526  -20.1956 C   0  0  0  0  0  0  0  0  0  0  0  0
   -6.8767   -1.0675  -18.8749 C   0  0  0  0  0  0  0  0  0  0  0  0
   -6.1970   -0.5591  -17.8110 N   0  0  0  0  0  0  0  0  0  0  0  0
   -5.1657    0.2059  -18.0717 C   0  0  0  0  0  0  0  0  0  0  0  0
   -4.7283    0.5225  -19.3863 C   0  0  0  0  0  0  0  0  0  0  0  0
   -3.6075    1.3595  -19.6180 C   0  0  0  0  0  0  0  0  0  0  0  0
   -3.2228    1.6531  -20.8964 C   0  0  0  0  0  0  0  0  0  0  0  0
   -3.9510    1.1352  -21.9914 C   0  0  0  0  0  0  0  0  0  0  0  0
   -5.0264    0.3062  -21.7933 C   0  0  0  0  0  0  0  0  0  0  0  0
   -5.4513   -0.0172  -20.4784 C   0  0  0  0  0  0  0  0  0  0  0  0
   -5.5487   -0.1154  -22.6486 H   0  0  0  0  0  0  0  0  0  0  0  0
   -3.6241    1.3623  -23.0023 H   0  0  0  0  0  0  0  0  0  0  0  0
   -2.3534    2.2738  -21.0830 H   0  0  0  0  0  0  0  0  0  0  0  0
   -3.0721    1.7605  -18.7599 H   0  0  0  0  0  0  0  0  0  0  0  0
   -4.6209    0.6211  -17.2213 H   0  0  0  0  0  0  0  0  0  0  0  0
   -7.7317   -1.6835  -18.5996 H   0  0  0  0  0  0  0  0  0  0  0  0
   -7.6107   -0.7663  -22.0929 H   0  0  0  0  0  0  0  0  0  0  0  0
   -8.3724   -1.7846  -20.8835 H   0  0  0  0  0  0  0  0  0  0  0  0
   -6.3206   -5.0739  -22.5016 H   0  0  0  0  0  0  0  0  0  0  0  0
   -5.8465   -4.3895  -24.0481 H   0  0  0  0  0  0  0  0  0  0  0  0
   -8.4145   -5.9201  -23.3963 H   0  0  0  0  0  0  0  0  0  0  0  0
   -7.1068   -6.4179  -24.4931 H   0  0  0  0  0  0  0  0  0  0  0  0
   -9.1804   -5.5475  -25.6311 H   0  0  0  0  0  0  0  0  0  0  0  0
   -9.6249   -3.0675  -25.4863 H   0  0  0  0  0  0  0  0  0  0  0  0
   -9.9438   -4.0269  -24.0322 H   0  0  0  0  0  0  0  0  0  0  0  0
   -9.0288   -2.1611  -23.1820 H   0  0  0  0  0  0  0  0  0  0  0  0
   -5.6499   -2.2594  -24.5470 H   0  0  0  0  0  0  0  0  0  0  0  0
   -4.6914   -0.4510  -25.9268 H   0  0  0  0  0  0  0  0  0  0  0  0
   -6.1629    1.3432  -26.8450 H   0  0  0  0  0  0  0  0  0  0  0  0
   -8.5933    1.2788  -26.3762 H   0  0  0  0  0  0  0  0  0  0  0  0
  -11.6401    0.0382  -24.9832 H   0  0  0  0  0  0  0  0  0  0  0  0
  -10.6302    0.3669  -26.4454 H   0  0  0  0  0  0  0  0  0  0  0  0
  -10.4232    1.3588  -24.9722 H   0  0  0  0  0  0  0  0  0  0  0  0
  1  2  1  0
  2  3  1  0
  3  4  2  0
  4  5  1  0
  5  6  2  0
  6  7  1  0
  7  8  2  0
  8  9  1  0
  9 10  1  0
 10 11  1  0
 11 12  1  0
 12 13  1  0
 12 14  1  0
 12 15  1  0
 11 16  1  0
 16 17  1  0
 17 18  1  0
 18 19  1  0
 19 20  2  0
 19 21  1  0
 21 22  1  0
 22 23  2  0
 23 24  1  0
 24 25  2  0
 25 26  1  0
 26 27  2  0
 27 28  1  0
 28 29  2  0
 29 30  1  0
 30 31  2  0
 30 32  1  0
 29 33  1  0
 28 34  1  0
 27 35  1  0
 25 36  1  0
 23 37  1  0
 21 38  1  0
 21 39  1  0
 17 40  1  0
 17 41  1  0
 16 42  1  0
 16 43  1  0
 11 44  1  6
 10 45  1  0
 10 46  1  0
  9 47  1  1
  7 48  1  0
  6 49  1  0
  5 50  1  0
  4 51  1  0
  1 52  1  0
  1 53  1  0
  1 54  1  0
  8  3  1  0
 18  9  1  0
 31 22  1  0
 31 26  1  0
M  END
>  <cnnaffinities>  (80) 
[5.22163, 5.44569]

>  <score>  (80) 
5.22163

>  <index>  (80) 
82

>  <Smiles>  (80) 
C(Oc1c(c(c(c(c1[C@]1(C([C@@](C([H])([H])[H])(C(C(N1C(=O)C(c1c(nc(c2c(c(c(c(c12)[H])[H])[H])[H])[H])[H])([H])[H])([H])[H])([H])[H])[H])([H])[H])[H])[H])[H])[H])[H])([H])([H])[H]

>  <h>  (80) 
<NA>

>  <Training>  (80) 
True

>  <Success>  (80) 
True

>  <enamine_searched>  (80) 
False

>  <enamine_id>  (80) 
nan

$$$$

     RDKit          3D

 46 50  0  0  0  0  0  0  0  0999 V2000
   -9.3078    1.6546  -26.2506 N   0  0  0  0  0  0  0  0  0  0  0  0
   -8.8841    0.0952  -26.7025 S   0  0  0  0  0  0  0  0  0  0  0  0
   -7.4689   -0.0379  -26.3896 O   0  0  0  0  0  0  0  0  0  0  0  0
   -9.3978   -0.2055  -28.0295 O   0  0  0  0  0  0  0  0  0  0  0  0
   -9.8418   -0.8367  -25.5477 C   0  0  0  0  0  0  0  0  0  0  0  0
  -11.1662   -1.2090  -25.7885 C   0  0  0  0  0  0  0  0  0  0  0  0
  -11.8670   -1.9209  -24.8367 C   0  0  0  0  0  0  0  0  0  0  0  0
  -11.2051   -2.3553  -23.6956 C   0  0  0  0  0  0  0  0  0  0  0  0
   -9.8584   -2.0518  -23.4928 C   0  0  0  0  0  0  0  0  0  0  0  0
   -9.2100   -1.2146  -24.3802 C   0  0  0  0  0  0  0  0  0  0  0  0
   -8.2067   -0.8789  -24.1547 H   0  0  0  0  0  0  0  0  0  0  0  0
   -9.0790   -2.5952  -22.3351 C   0  0  1  0  0  0  0  0  0  0  0  0
   -9.9455   -3.6267  -21.6007 C   0  0  0  0  0  0  0  0  0  0  0  0
  -11.3676   -3.1165  -21.5242 C   0  0  0  0  0  0  0  0  0  0  0  0
  -11.9416   -3.0629  -22.8114 O   0  0  0  0  0  0  0  0  0  0  0  0
  -11.3508   -2.1130  -21.0856 H   0  0  0  0  0  0  0  0  0  0  0  0
  -12.0251   -3.7707  -20.9519 H   0  0  0  0  0  0  0  0  0  0  0  0
   -9.9376   -4.5781  -22.1401 H   0  0  0  0  0  0  0  0  0  0  0  0
   -9.5339   -3.7706  -20.6122 H   0  0  0  0  0  0  0  0  0  0  0  0
   -7.7799   -3.1253  -22.6979 N   0  0  0  0  0  0  0  0  0  0  0  0
   -6.7590   -2.6946  -21.8973 C   0  0  0  0  0  0  0  0  0  0  0  0
   -5.6340   -3.1211  -21.8130 O   0  0  0  0  0  0  0  0  0  0  0  0
   -7.2841   -1.6170  -21.1489 N   0  0  0  0  0  0  0  0  0  0  0  0
   -6.5646   -0.9198  -20.1310 C   0  0  0  0  0  0  0  0  0  0  0  0
   -6.9005   -1.1065  -18.8162 C   0  0  0  0  0  0  0  0  0  0  0  0
   -6.2259   -0.5816  -17.7645 N   0  0  0  0  0  0  0  0  0  0  0  0
   -5.1975    0.1871  -18.0255 C   0  0  0  0  0  0  0  0  0  0  0  0
   -4.7605    0.5095  -19.3385 C   0  0  0  0  0  0  0  0  0  0  0  0
   -3.6649    1.3907  -19.5651 C   0  0  0  0  0  0  0  0  0  0  0  0
   -3.3277    1.7555  -20.8393 C   0  0  0  0  0  0  0  0  0  0  0  0
   -4.0622    1.2505  -21.9344 C   0  0  0  0  0  0  0  0  0  0  0  0
   -5.0957    0.3683  -21.7374 C   0  0  0  0  0  0  0  0  0  0  0  0
   -5.4753   -0.0362  -20.4313 C   0  0  0  0  0  0  0  0  0  0  0  0
   -5.6488   -0.0017  -22.5902 H   0  0  0  0  0  0  0  0  0  0  0  0
   -3.7972    1.5617  -22.9420 H   0  0  0  0  0  0  0  0  0  0  0  0
   -2.5069    2.4456  -21.0239 H   0  0  0  0  0  0  0  0  0  0  0  0
   -3.1133    1.7843  -18.7133 H   0  0  0  0  0  0  0  0  0  0  0  0
   -4.6653    0.6046  -17.1709 H   0  0  0  0  0  0  0  0  0  0  0  0
   -7.7551   -1.7291  -18.5706 H   0  0  0  0  0  0  0  0  0  0  0  0
   -8.6403   -1.4481  -21.4085 C   0  0  0  0  0  0  0  0  0  0  0  0
   -9.3237   -0.5390  -21.0080 O   0  0  0  0  0  0  0  0  0  0  0  0
   -7.6565   -3.9188  -23.3051 H   0  0  0  0  0  0  0  0  0  0  0  0
  -12.9071   -2.1984  -24.9668 H   0  0  0  0  0  0  0  0  0  0  0  0
  -11.6580   -1.0059  -26.7228 H   0  0  0  0  0  0  0  0  0  0  0  0
   -8.4970    2.2588  -26.3304 H   0  0  0  0  0  0  0  0  0  0  0  0
  -10.0239    2.0005  -26.8726 H   0  0  0  0  0  0  0  0  0  0  0  0
  1  2  1  0
  2  3  2  0
  2  4  2  0
  2  5  1  0
  5  6  2  0
  6  7  1  0
  7  8  2  0
  8  9  1  0
  9 10  2  0
 10 11  1  0
  9 12  1  0
 12 13  1  0
 13 14  1  0
 14 15  1  0
 14 16  1  0
 14 17  1  0
 13 18  1  0
 13 19  1  0
 12 20  1  6
 20 21  1  0
 21 22  2  0
 21 23  1  0
 23 24  1  0
 24 25  2  0
 25 26  1  0
 26 27  2  0
 27 28  1  0
 28 29  2  0
 29 30  1  0
 30 31  2  0
 31 32  1  0
 32 33  2  0
 32 34  1  0
 31 35  1  0
 30 36  1  0
 29 37  1  0
 27 38  1  0
 25 39  1  0
 23 40  1  0
 40 41  2  0
 20 42  1  0
  7 43  1  0
  6 44  1  0
  1 45  1  0
  1 46  1  0
 10  5  1  0
 40 12  1  0
 15  8  1  0
 33 24  1  0
 33 28  1  0
M  END
>  <cnnaffinities>  (81) 
[5.27622, 4.96535, 5.18068]

>  <score>  (81) 
5.27622

>  <index>  (81) 
83

>  <Smiles>  (81) 
N(S(=O)(=O)c1c(c(c2c(c1[H])[C@@]1(C(C(O2)([H])[H])([H])[H])N(C(=O)N(c2c(nc(c3c(c(c(c(c23)[H])[H])[H])[H])[H])[H])C1=O)[H])[H])[H])([H])[H]

>  <h>  (81) 
<NA>

>  <Training>  (81) 
True

>  <Success>  (81) 
True

>  <enamine_searched>  (81) 
False

>  <enamine_id>  (81) 
nan

$$$$

     RDKit          3D

 63 68  0  0  0  0  0  0  0  0999 V2000
   -8.3636   -4.2103  -23.4923 C   0  0  0  0  0  0  0  0  0  0  0  0
   -8.5523   -3.0118  -22.5676 C   0  0  1  0  0  0  0  0  0  0  0  0
   -7.3439   -2.7746  -21.6519 C   0  0  0  0  0  0  0  0  0  0  0  0
   -7.4676   -1.3776  -21.2869 N   0  0  0  0  0  0  0  0  0  0  0  0
   -6.7041   -0.7853  -20.2462 C   0  0  0  0  0  0  0  0  0  0  0  0
   -6.9790   -1.1166  -18.9430 C   0  0  0  0  0  0  0  0  0  0  0  0
   -6.2982   -0.6572  -17.8649 N   0  0  0  0  0  0  0  0  0  0  0  0
   -5.2897    0.1503  -18.0879 C   0  0  0  0  0  0  0  0  0  0  0  0
   -4.8750    0.5588  -19.3856 C   0  0  0  0  0  0  0  0  0  0  0  0
   -3.7527    1.4115  -19.5666 C   0  0  0  0  0  0  0  0  0  0  0  0
   -3.3519    1.7690  -20.8239 C   0  0  0  0  0  0  0  0  0  0  0  0
   -4.0622    1.3040  -21.9531 C   0  0  0  0  0  0  0  0  0  0  0  0
   -5.1544    0.4872  -21.8024 C   0  0  0  0  0  0  0  0  0  0  0  0
   -5.5956    0.0889  -20.5087 C   0  0  0  0  0  0  0  0  0  0  0  0
   -5.6928    0.1442  -22.6800 H   0  0  0  0  0  0  0  0  0  0  0  0
   -3.7272    1.5839  -22.9480 H   0  0  0  0  0  0  0  0  0  0  0  0
   -2.4896    2.4149  -20.9656 H   0  0  0  0  0  0  0  0  0  0  0  0
   -3.2275    1.7720  -18.6855 H   0  0  0  0  0  0  0  0  0  0  0  0
   -4.7373    0.5150  -17.2206 H   0  0  0  0  0  0  0  0  0  0  0  0
   -7.8112   -1.7860  -18.7263 H   0  0  0  0  0  0  0  0  0  0  0  0
   -8.2945   -0.6651  -22.1298 C   0  0  0  0  0  0  0  0  0  0  0  0
   -8.5215    0.5221  -22.0146 O   0  0  0  0  0  0  0  0  0  0  0  0
   -8.8276   -1.6161  -23.2296 C   0  0  1  0  0  0  0  0  0  0  0  0
   -7.9978   -1.3336  -24.5076 C   0  0  0  0  0  0  0  0  0  0  0  0
   -8.5922   -1.8579  -25.7367 N   0  0  0  0  0  0  0  0  0  0  0  0
   -7.7163   -2.2092  -26.8475 C   0  0  0  0  0  0  0  0  0  0  0  0
   -7.6454   -3.7285  -27.0974 C   0  0  0  0  0  0  0  0  0  0  0  0
   -6.7748   -4.4296  -26.6052 O   0  0  0  0  0  0  0  0  0  0  0  0
   -8.6312   -4.1998  -27.8981 N   0  0  0  0  0  0  0  0  0  0  0  0
   -8.6455   -5.5770  -28.3479 C   0  0  0  0  0  0  0  0  0  0  0  0
   -7.4795   -5.9178  -29.1638 C   0  0  0  0  0  0  0  0  0  0  0  0
   -6.5351   -4.9745  -29.4319 F   0  0  0  0  0  0  0  0  0  0  0  0
   -7.3374   -6.9636  -30.0027 C   0  0  0  0  0  0  0  0  0  0  0  0
   -7.4579   -7.1475  -29.9397 C   0  0  0  0  0  0  0  0  0  0  0  0
   -6.2075   -7.6064  -29.8657 H   0  0  0  0  0  0  0  0  0  0  0  0
   -8.3211   -8.2424  -29.0458 H   0  0  0  0  0  0  0  0  0  0  0  0
   -6.3406   -6.6926  -30.7060 H   0  0  0  0  0  0  0  0  0  0  0  0
   -8.1524   -6.9807  -31.0157 H   0  0  0  0  0  0  0  0  0  0  0  0
   -8.7016   -6.2616  -27.4826 H   0  0  0  0  0  0  0  0  0  0  0  0
   -9.6155   -5.7223  -28.8629 H   0  0  0  0  0  0  0  0  0  0  0  0
   -9.4296   -3.5988  -28.0596 H   0  0  0  0  0  0  0  0  0  0  0  0
   -8.0697   -1.7076  -27.7536 H   0  0  0  0  0  0  0  0  0  0  0  0
   -6.7088   -1.8609  -26.6197 H   0  0  0  0  0  0  0  0  0  0  0  0
   -9.9300   -1.8262  -25.9810 C   0  0  0  0  0  0  0  0  0  0  0  0
  -10.4002   -2.0985  -27.0908 O   0  0  0  0  0  0  0  0  0  0  0  0
  -10.8058   -1.4789  -24.8290 C   0  0  0  0  0  0  0  0  0  0  0  0
  -12.1658   -1.3041  -25.0830 C   0  0  0  0  0  0  0  0  0  0  0  0
  -13.0390   -1.0060  -24.0554 C   0  0  0  0  0  0  0  0  0  0  0  0
  -12.5249   -0.9209  -22.7646 C   0  0  0  0  0  0  0  0  0  0  0  0
  -13.3773   -0.6433  -21.7640 F   0  0  0  0  0  0  0  0  0  0  0  0
  -11.1851   -1.1182  -22.4813 C   0  0  0  0  0  0  0  0  0  0  0  0
  -10.2937   -1.3796  -23.5295 C   0  0  0  0  0  0  0  0  0  0  0  0
  -10.8317   -1.0632  -21.4557 H   0  0  0  0  0  0  0  0  0  0  0  0
  -14.0999   -0.8422  -24.2191 H   0  0  0  0  0  0  0  0  0  0  0  0
  -12.5097   -1.4115  -26.1067 H   0  0  0  0  0  0  0  0  0  0  0  0
   -7.0082   -1.7929  -24.4065 H   0  0  0  0  0  0  0  0  0  0  0  0
   -7.8569   -0.2445  -24.5779 H   0  0  0  0  0  0  0  0  0  0  0  0
   -6.3966   -2.9619  -22.1851 H   0  0  0  0  0  0  0  0  0  0  0  0
   -7.3526   -3.4079  -20.7599 H   0  0  0  0  0  0  0  0  0  0  0  0
   -9.4262   -3.1935  -21.9223 H   0  0  0  0  0  0  0  0  0  0  0  0
   -9.2316   -4.3566  -24.1417 H   0  0  0  0  0  0  0  0  0  0  0  0
   -7.4775   -4.1037  -24.1302 H   0  0  0  0  0  0  0  0  0  0  0  0
   -8.2350   -5.1203  -22.8954 H   0  0  0  0  0  0  0  0  0  0  0  0
  1  2  1  0
  2  3  1  0
  3  4  1  0
  4  5  1  0
  5  6  2  0
  6  7  1  0
  7  8  2  0
  8  9  1  0
  9 10  2  0
 10 11  1  0
 11 12  2  0
 12 13  1  0
 13 14  2  0
 13 15  1  0
 12 16  1  0
 11 17  1  0
 10 18  1  0
  8 19  1  0
  6 20  1  0
  4 21  1  0
 21 22  2  0
 21 23  1  0
 23 24  1  6
 24 25  1  0
 25 26  1  0
 26 27  1  0
 27 28  2  0
 27 29  1  0
 29 30  1  0
 30 31  1  0
 31 32  1  0
 31 33  1  0
 33 34  1  0
 34 35  1  0
 34 36  1  0
 33 37  1  0
 33 38  1  0
 30 39  1  0
 30 40  1  0
 29 41  1  0
 26 42  1  0
 26 43  1  0
 25 44  1  0
 44 45  2  0
 44 46  1  0
 46 47  2  0
 47 48  1  0
 48 49  2  0
 49 50  1  0
 49 51  1  0
 51 52  2  0
 51 53  1  0
 48 54  1  0
 47 55  1  0
 24 56  1  0
 24 57  1  0
  3 58  1  0
  3 59  1  0
  2 60  1  1
  1 61  1  0
  1 62  1  0
  1 63  1  0
 23  2  1  0
 34 31  1  0
 52 46  1  0
 14  5  1  0
 52 23  1  0
 14  9  1  0
M  END
>  <cnnaffinities>  (82) 
[5.92281]

>  <score>  (82) 
5.92281

>  <index>  (82) 
84

>  <Smiles>  (82) 
C([C@]1(C(N(c2c(nc(c3c(c(c(c(c23)[H])[H])[H])[H])[H])[H])C(=O)[C@]21C(N(C(C(=O)N(C(C1(F)C(C1([H])[H])([H])[H])([H])[H])[H])([H])[H])C(=O)c1c(c(c(F)c(c21)[H])[H])[H])([H])[H])([H])[H])[H])([H])([H])[H]

>  <h>  (82) 
<NA>

>  <Training>  (82) 
True

>  <Success>  (82) 
True

>  <enamine_searched>  (82) 
False

>  <enamine_id>  (82) 
nan

$$$$

     RDKit          3D

 57 62  0  0  0  0  0  0  0  0999 V2000
   -6.5887    3.4699  -23.1106 C   0  0  0  0  0  0  0  0  0  0  0  0
   -6.9780    2.4760  -24.0944 N   0  0  0  0  0  0  0  0  0  0  0  0
   -8.2477    2.5181  -24.5880 C   0  0  0  0  0  0  0  0  0  0  0  0
   -8.9825    3.4693  -24.3919 O   0  0  0  0  0  0  0  0  0  0  0  0
   -8.6813    1.3226  -25.4414 C   0  0  0  0  0  0  0  0  0  0  0  0
   -9.3708    0.2968  -24.6838 N   0  0  0  0  0  0  0  0  0  0  0  0
   -8.7633   -1.0048  -24.4454 C   0  0  0  0  0  0  0  0  0  0  0  0
   -8.9867   -1.5006  -22.9981 C   0  0  2  0  0  0  0  0  0  0  0  0
   -8.2265   -0.5925  -22.0089 C   0  0  0  0  0  0  0  0  0  0  0  0
   -8.3261    0.6159  -21.9133 O   0  0  0  0  0  0  0  0  0  0  0  0
   -7.3896   -1.3603  -21.2356 N   0  0  0  0  0  0  0  0  0  0  0  0
   -6.6051   -0.8078  -20.1959 C   0  0  0  0  0  0  0  0  0  0  0  0
   -6.9000   -1.0770  -18.8834 C   0  0  0  0  0  0  0  0  0  0  0  0
   -6.2102   -0.5837  -17.8264 N   0  0  0  0  0  0  0  0  0  0  0  0
   -5.1885    0.1998  -18.0848 C   0  0  0  0  0  0  0  0  0  0  0  0
   -4.7617    0.5424  -19.3999 C   0  0  0  0  0  0  0  0  0  0  0  0
   -3.6291    1.3705  -19.6296 C   0  0  0  0  0  0  0  0  0  0  0  0
   -3.2335    1.6649  -20.9058 C   0  0  0  0  0  0  0  0  0  0  0  0
   -3.9507    1.1522  -22.0096 C   0  0  0  0  0  0  0  0  0  0  0  0
   -5.0260    0.3221  -21.8168 C   0  0  0  0  0  0  0  0  0  0  0  0
   -5.4809    0.0216  -20.4993 C   0  0  0  0  0  0  0  0  0  0  0  0
   -5.5153   -0.1360  -22.6692 H   0  0  0  0  0  0  0  0  0  0  0  0
   -3.6193    1.3936  -23.0185 H   0  0  0  0  0  0  0  0  0  0  0  0
   -2.3578    2.2815  -21.0874 H   0  0  0  0  0  0  0  0  0  0  0  0
   -3.0856    1.7537  -18.7708 H   0  0  0  0  0  0  0  0  0  0  0  0
   -4.6339    0.5991  -17.2339 H   0  0  0  0  0  0  0  0  0  0  0  0
   -7.7589   -1.7020  -18.6364 H   0  0  0  0  0  0  0  0  0  0  0  0
   -7.4900   -2.7768  -21.4814 C   0  0  0  0  0  0  0  0  0  0  0  0
   -8.3657   -2.8822  -22.7231 C   0  0  0  0  0  0  0  0  0  0  0  0
   -7.9244   -3.8247  -23.8129 C   0  0  0  0  0  0  0  0  0  0  0  0
   -9.1298   -4.1488  -22.9847 C   0  0  0  0  0  0  0  0  0  0  0  0
  -10.1060   -4.0427  -23.4478 H   0  0  0  0  0  0  0  0  0  0  0  0
   -9.0809   -4.9421  -22.2414 H   0  0  0  0  0  0  0  0  0  0  0  0
   -8.0694   -3.5162  -24.8423 H   0  0  0  0  0  0  0  0  0  0  0  0
   -7.0092   -4.3880  -23.6490 H   0  0  0  0  0  0  0  0  0  0  0  0
   -6.4933   -3.1988  -21.6424 H   0  0  0  0  0  0  0  0  0  0  0  0
   -7.9518   -3.2805  -20.6291 H   0  0  0  0  0  0  0  0  0  0  0  0
  -10.4907   -1.4090  -22.7543 C   0  0  0  0  0  0  0  0  0  0  0  0
  -11.1169   -2.2438  -21.8259 C   0  0  0  0  0  0  0  0  0  0  0  0
  -12.4902   -2.1674  -21.6562 C   0  0  0  0  0  0  0  0  0  0  0  0
  -13.2848   -3.3635  -20.6523 Cl  0  0  0  0  0  0  0  0  0  0  0  0
  -13.2504   -1.1489  -22.2365 C   0  0  0  0  0  0  0  0  0  0  0  0
  -12.6196   -0.2675  -23.0921 C   0  0  0  0  0  0  0  0  0  0  0  0
  -11.2725   -0.4394  -23.3947 C   0  0  0  0  0  0  0  0  0  0  0  0
  -10.6739    0.5342  -24.3541 C   0  0  0  0  0  0  0  0  0  0  0  0
  -11.3039    1.4910  -24.7843 O   0  0  0  0  0  0  0  0  0  0  0  0
  -13.1236    0.5789  -23.5528 H   0  0  0  0  0  0  0  0  0  0  0  0
  -14.3021   -1.0443  -21.9935 H   0  0  0  0  0  0  0  0  0  0  0  0
  -10.5406   -2.9532  -21.2422 H   0  0  0  0  0  0  0  0  0  0  0  0
   -7.6914   -0.9526  -24.6485 H   0  0  0  0  0  0  0  0  0  0  0  0
   -9.2103   -1.7506  -25.1149 H   0  0  0  0  0  0  0  0  0  0  0  0
   -7.8144    0.8579  -25.9177 H   0  0  0  0  0  0  0  0  0  0  0  0
   -9.3778    1.7087  -26.1907 H   0  0  0  0  0  0  0  0  0  0  0  0
   -6.4599    1.6120  -24.1105 H   0  0  0  0  0  0  0  0  0  0  0  0
   -5.5758    3.2558  -22.7568 H   0  0  0  0  0  0  0  0  0  0  0  0
   -7.2831    3.4572  -22.2657 H   0  0  0  0  0  0  0  0  0  0  0  0
   -6.6233    4.4679  -23.5530 H   0  0  0  0  0  0  0  0  0  0  0  0
  1  2  1  0
  2  3  1  0
  3  4  2  0
  3  5  1  0
  5  6  1  0
  6  7  1  0
  8  7  1  6
  8  9  1  0
  9 10  2  0
  9 11  1  0
 11 12  1  0
 12 13  2  0
 13 14  1  0
 14 15  2  0
 15 16  1  0
 16 17  2  0
 17 18  1  0
 18 19  2  0
 19 20  1  0
 20 21  2  0
 20 22  1  0
 19 23  1  0
 18 24  1  0
 17 25  1  0
 15 26  1  0
 13 27  1  0
 11 28  1  0
 28 29  1  0
 29 30  1  0
 30 31  1  0
 31 32  1  0
 31 33  1  0
 30 34  1  0
 30 35  1  0
 28 36  1  0
 28 37  1  0
  8 38  1  0
 38 39  2  0
 39 40  1  0
 40 41  1  0
 40 42  2  0
 42 43  1  0
 43 44  2  0
 44 45  1  0
 45 46  2  0
 43 47  1  0
 42 48  1  0
 39 49  1  0
  7 50  1  0
  7 51  1  0
  5 52  1  0
  5 53  1  0
  2 54  1  0
  1 55  1  0
  1 56  1  0
  1 57  1  0
 45  6  1  0
 29  8  1  0
 44 38  1  0
 21 12  1  0
 31 29  1  0
 21 16  1  0
M  END
>  <cnnaffinities>  (83) 
[5.92027]

>  <score>  (83) 
5.92027

>  <index>  (83) 
85

>  <Smiles>  (83) 
C(N(C(=O)C(N1C([C@@]2(C(=O)N(c3c(nc(c4c(c(c(c(c34)[H])[H])[H])[H])[H])[H])C(C32C(C3([H])[H])([H])[H])([H])[H])c2c(c(Cl)c(c(c2C1=O)[H])[H])[H])([H])[H])([H])[H])[H])([H])([H])[H]

>  <h>  (83) 
<NA>

>  <Training>  (83) 
True

>  <Success>  (83) 
True

>  <enamine_searched>  (83) 
False

>  <enamine_id>  (83) 
nan

$$$$

     RDKit          3D

 43 45  0  0  0  0  0  0  0  0999 V2000
   -8.0634    0.6697  -26.8259 C   0  0  0  0  0  0  0  0  0  0  0  0
   -9.2922    0.2995  -25.9917 C   0  0  1  0  0  0  0  0  0  0  0  0
   -9.1814   -1.0856  -25.3622 C   0  0  0  0  0  0  0  0  0  0  0  0
   -8.2213   -1.1242  -24.1741 C   0  0  0  0  0  0  0  0  0  0  0  0
   -8.5884   -0.1343  -23.1736 N   0  0  0  0  0  0  0  0  0  0  0  0
   -8.4524   -0.3485  -21.8111 C   0  0  0  0  0  0  0  0  0  0  0  0
   -9.1113    0.2761  -21.0009 O   0  0  0  0  0  0  0  0  0  0  0  0
   -7.4397   -1.3976  -21.2835 C   0  0  0  0  0  0  0  0  0  0  0  0
   -6.5749   -0.8297  -20.1769 C   0  0  0  0  0  0  0  0  0  0  0  0
   -6.8772   -1.0422  -18.8557 C   0  0  0  0  0  0  0  0  0  0  0  0
   -6.1877   -0.5419  -17.7949 N   0  0  0  0  0  0  0  0  0  0  0  0
   -5.1552    0.2206  -18.0634 C   0  0  0  0  0  0  0  0  0  0  0  0
   -4.7215    0.5351  -19.3785 C   0  0  0  0  0  0  0  0  0  0  0  0
   -3.6005    1.3704  -19.6199 C   0  0  0  0  0  0  0  0  0  0  0  0
   -3.2207    1.6731  -20.8985 C   0  0  0  0  0  0  0  0  0  0  0  0
   -3.9568    1.1564  -21.9878 C   0  0  0  0  0  0  0  0  0  0  0  0
   -5.0301    0.3251  -21.7826 C   0  0  0  0  0  0  0  0  0  0  0  0
   -5.4503   -0.0041  -20.4687 C   0  0  0  0  0  0  0  0  0  0  0  0
   -5.5579   -0.0763  -22.6443 H   0  0  0  0  0  0  0  0  0  0  0  0
   -3.6272    1.3750  -22.9993 H   0  0  0  0  0  0  0  0  0  0  0  0
   -2.3575    2.3053  -21.0885 H   0  0  0  0  0  0  0  0  0  0  0  0
   -3.0607    1.7797  -18.7693 H   0  0  0  0  0  0  0  0  0  0  0  0
   -4.6020    0.6278  -17.2147 H   0  0  0  0  0  0  0  0  0  0  0  0
   -7.7302   -1.6606  -18.5821 H   0  0  0  0  0  0  0  0  0  0  0  0
   -6.8145   -1.8216  -22.0788 H   0  0  0  0  0  0  0  0  0  0  0  0
   -8.0337   -2.2187  -20.8609 H   0  0  0  0  0  0  0  0  0  0  0  0
   -8.7951    1.2539  -23.6200 C   0  0  1  0  0  0  0  0  0  0  0  0
   -7.4727    2.0308  -23.7176 C   0  0  0  0  0  0  0  0  0  0  0  0
   -7.6275    3.0141  -24.1760 H   0  0  0  0  0  0  0  0  0  0  0  0
   -6.7266    1.5029  -24.3192 H   0  0  0  0  0  0  0  0  0  0  0  0
   -7.0430    2.1998  -22.7232 H   0  0  0  0  0  0  0  0  0  0  0  0
   -9.6456    1.3098  -24.8983 C   0  0  0  0  0  0  0  0  0  0  0  0
  -10.6939    1.1635  -24.6141 H   0  0  0  0  0  0  0  0  0  0  0  0
   -9.5912    2.3227  -25.3141 H   0  0  0  0  0  0  0  0  0  0  0  0
   -9.3805    1.7295  -22.8307 H   0  0  0  0  0  0  0  0  0  0  0  0
   -7.1821   -1.0057  -24.5225 H   0  0  0  0  0  0  0  0  0  0  0  0
   -8.2836   -2.1076  -23.7088 H   0  0  0  0  0  0  0  0  0  0  0  0
   -8.8540   -1.8112  -26.1124 H   0  0  0  0  0  0  0  0  0  0  0  0
  -10.1687   -1.4126  -25.0224 H   0  0  0  0  0  0  0  0  0  0  0  0
  -10.1390    0.2828  -26.6909 H   0  0  0  0  0  0  0  0  0  0  0  0
   -7.1254    0.5611  -26.2742 H   0  0  0  0  0  0  0  0  0  0  0  0
   -8.1184    1.7064  -27.1733 H   0  0  0  0  0  0  0  0  0  0  0  0
   -7.9924    0.0264  -27.7106 H   0  0  0  0  0  0  0  0  0  0  0  0
  1  2  1  0
  2  3  1  0
  3  4  1  0
  4  5  1  0
  5  6  1  0
  6  7  2  0
  6  8  1  0
  8  9  1  0
  9 10  2  0
 10 11  1  0
 11 12  2  0
 12 13  1  0
 13 14  2  0
 14 15  1  0
 15 16  2  0
 16 17  1  0
 17 18  2  0
 17 19  1  0
 16 20  1  0
 15 21  1  0
 14 22  1  0
 12 23  1  0
 10 24  1  0
  8 25  1  0
  8 26  1  0
  5 27  1  0
 27 28  1  0
 28 29  1  0
 28 30  1  0
 28 31  1  0
 27 32  1  0
 32 33  1  0
 32 34  1  0
 27 35  1  1
  4 36  1  0
  4 37  1  0
  3 38  1  0
  3 39  1  0
  2 40  1  6
  1 41  1  0
  1 42  1  0
  1 43  1  0
 32  2  1  0
 18  9  1  0
 18 13  1  0
M  END
>  <cnnaffinities>  (84) 
[4.52063, 4.36504, 4.73024, 4.27013]

>  <score>  (84) 
4.52063

>  <index>  (84) 
86

>  <Smiles>  (84) 
C([C@]1(C(C(N(C(=O)C(c2c(nc(c3c(c(c(c(c23)[H])[H])[H])[H])[H])[H])([H])[H])[C@@](C([H])([H])[H])(C1([H])[H])[H])([H])[H])([H])[H])[H])([H])([H])[H]

>  <h>  (84) 
<NA>

>  <Training>  (84) 
True

>  <Success>  (84) 
True

>  <enamine_searched>  (84) 
False

>  <enamine_id>  (84) 
nan

$$$$

     RDKit          3D

 59 64  0  0  0  0  0  0  0  0999 V2000
   -7.8702   -3.6827  -24.0562 C   0  0  0  0  0  0  0  0  0  0  0  0
   -8.2707   -2.8873  -22.8067 C   0  0  1  0  0  0  0  0  0  0  0  0
   -7.0712   -2.6406  -21.8669 C   0  0  0  0  0  0  0  0  0  0  0  0
   -7.3997   -1.3992  -21.1984 N   0  0  0  0  0  0  0  0  0  0  0  0
   -6.6038   -0.8176  -20.1744 C   0  0  0  0  0  0  0  0  0  0  0  0
   -6.9056   -1.0506  -18.8596 C   0  0  0  0  0  0  0  0  0  0  0  0
   -6.1984   -0.5597  -17.8103 N   0  0  0  0  0  0  0  0  0  0  0  0
   -5.1666    0.2031  -18.0791 C   0  0  0  0  0  0  0  0  0  0  0  0
   -4.7370    0.5299  -19.3959 C   0  0  0  0  0  0  0  0  0  0  0  0
   -3.6123    1.3665  -19.6342 C   0  0  0  0  0  0  0  0  0  0  0  0
   -3.2317    1.6674  -20.9121 C   0  0  0  0  0  0  0  0  0  0  0  0
   -3.9624    1.1487  -22.0055 C   0  0  0  0  0  0  0  0  0  0  0  0
   -5.0425    0.3245  -21.8016 C   0  0  0  0  0  0  0  0  0  0  0  0
   -5.4720    0.0035  -20.4849 C   0  0  0  0  0  0  0  0  0  0  0  0
   -5.5700   -0.0840  -22.6581 H   0  0  0  0  0  0  0  0  0  0  0  0
   -3.6380    1.3716  -23.0159 H   0  0  0  0  0  0  0  0  0  0  0  0
   -2.3661    2.2951  -21.1006 H   0  0  0  0  0  0  0  0  0  0  0  0
   -3.0748    1.7682  -18.7785 H   0  0  0  0  0  0  0  0  0  0  0  0
   -4.6198    0.6122  -17.2282 H   0  0  0  0  0  0  0  0  0  0  0  0
   -7.7587   -1.6716  -18.5992 H   0  0  0  0  0  0  0  0  0  0  0  0
   -8.4255   -0.6939  -21.7881 C   0  0  0  0  0  0  0  0  0  0  0  0
   -8.8539    0.3564  -21.3578 O   0  0  0  0  0  0  0  0  0  0  0  0
   -8.9236   -1.4803  -23.0307 C   0  0  1  0  0  0  0  0  0  0  0  0
   -8.4083   -0.8375  -24.3445 C   0  0  0  0  0  0  0  0  0  0  0  0
   -9.0496    0.4313  -24.6362 N   0  0  0  0  0  0  0  0  0  0  0  0
   -8.2972    1.5186  -25.2415 C   0  0  0  0  0  0  0  0  0  0  0  0
   -8.1730    2.7217  -24.3451 C   0  0  0  0  0  0  0  0  0  0  0  0
   -7.5770    2.8193  -23.1051 C   0  0  0  0  0  0  0  0  0  0  0  0
   -7.7664    4.1596  -22.7121 C   0  0  0  0  0  0  0  0  0  0  0  0
   -8.4013    4.8479  -23.6554 N   0  0  0  0  0  0  0  0  0  0  0  0
   -8.6219    3.9673  -24.6396 N   0  0  0  0  0  0  0  0  0  0  0  0
   -9.2623    4.4011  -25.8631 C   0  0  0  0  0  0  0  0  0  0  0  0
  -10.1376    3.7750  -26.0193 H   0  0  0  0  0  0  0  0  0  0  0  0
   -8.5778    4.3083  -26.7163 H   0  0  0  0  0  0  0  0  0  0  0  0
   -9.5334    5.4496  -25.7204 H   0  0  0  0  0  0  0  0  0  0  0  0
   -7.4820    4.6603  -21.7921 H   0  0  0  0  0  0  0  0  0  0  0  0
   -7.0964    2.0105  -22.5732 H   0  0  0  0  0  0  0  0  0  0  0  0
   -8.7453    1.7771  -26.2090 H   0  0  0  0  0  0  0  0  0  0  0  0
   -7.2953    1.1269  -25.4289 H   0  0  0  0  0  0  0  0  0  0  0  0
  -10.4034    0.5730  -24.5698 C   0  0  0  0  0  0  0  0  0  0  0  0
  -10.9756    1.5310  -25.0780 O   0  0  0  0  0  0  0  0  0  0  0  0
  -11.1363   -0.4916  -23.8064 C   0  0  0  0  0  0  0  0  0  0  0  0
  -12.5323   -0.4571  -23.8007 C   0  0  0  0  0  0  0  0  0  0  0  0
  -13.2537   -1.3239  -23.0038 C   0  0  0  0  0  0  0  0  0  0  0  0
  -12.5535   -2.2027  -22.1857 C   0  0  0  0  0  0  0  0  0  0  0  0
  -13.2467   -3.0094  -21.3656 F   0  0  0  0  0  0  0  0  0  0  0  0
  -11.1760   -2.2687  -22.1796 C   0  0  0  0  0  0  0  0  0  0  0  0
  -10.4425   -1.4482  -23.0463 C   0  0  0  0  0  0  0  0  0  0  0  0
  -10.7049   -2.9417  -21.4714 H   0  0  0  0  0  0  0  0  0  0  0  0
  -14.3359   -1.3174  -22.9740 H   0  0  0  0  0  0  0  0  0  0  0  0
  -13.0236    0.2850  -24.4192 H   0  0  0  0  0  0  0  0  0  0  0  0
   -8.5768   -1.5468  -25.1703 H   0  0  0  0  0  0  0  0  0  0  0  0
   -7.3308   -0.6626  -24.2420 H   0  0  0  0  0  0  0  0  0  0  0  0
   -6.1303   -2.5550  -22.4348 H   0  0  0  0  0  0  0  0  0  0  0  0
   -6.9354   -3.4433  -21.1312 H   0  0  0  0  0  0  0  0  0  0  0  0
   -9.0088   -3.4740  -22.2538 H   0  0  0  0  0  0  0  0  0  0  0  0
   -8.7119   -3.8234  -24.7443 H   0  0  0  0  0  0  0  0  0  0  0  0
   -7.0693   -3.1760  -24.6099 H   0  0  0  0  0  0  0  0  0  0  0  0
   -7.4949   -4.6755  -23.7821 H   0  0  0  0  0  0  0  0  0  0  0  0
  1  2  1  0
  2  3  1  0
  3  4  1  0
  4  5  1  0
  5  6  2  0
  6  7  1  0
  7  8  2  0
  8  9  1  0
  9 10  2  0
 10 11  1  0
 11 12  2  0
 12 13  1  0
 13 14  2  0
 13 15  1  0
 12 16  1  0
 11 17  1  0
 10 18  1  0
  8 19  1  0
  6 20  1  0
  4 21  1  0
 21 22  2  0
 21 23  1  0
 23 24  1  6
 24 25  1  0
 25 26  1  0
 26 27  1  0
 27 28  2  0
 28 29  1  0
 29 30  2  0
 30 31  1  0
 31 32  1  0
 32 33  1  0
 32 34  1  0
 32 35  1  0
 29 36  1  0
 28 37  1  0
 26 38  1  0
 26 39  1  0
 25 40  1  0
 40 41  2  0
 40 42  1  0
 42 43  2  0
 43 44  1  0
 44 45  2  0
 45 46  1  0
 45 47  1  0
 47 48  2  0
 47 49  1  0
 44 50  1  0
 43 51  1  0
 24 52  1  0
 24 53  1  0
  3 54  1  0
  3 55  1  0
  2 56  1  1
  1 57  1  0
  1 58  1  0
  1 59  1  0
 23  2  1  0
 31 27  1  0
 48 42  1  0
 14  5  1  0
 48 23  1  0
 14  9  1  0
M  END
>  <cnnaffinities>  (85) 
[6.28465, 6.64155, 6.13386, 6.11355, 6.00584]

>  <score>  (85) 
6.28465

>  <index>  (85) 
87

>  <Smiles>  (85) 
C([C@]1(C(N(c2c(nc(c3c(c(c(c(c23)[H])[H])[H])[H])[H])[H])C(=O)[C@]21C(N(C(c1c(c(nn1C([H])([H])[H])[H])[H])([H])[H])C(=O)c1c(c(c(F)c(c21)[H])[H])[H])([H])[H])([H])[H])[H])([H])([H])[H]

>  <h>  (85) 
<NA>

>  <Training>  (85) 
True

>  <Success>  (85) 
True

>  <enamine_searched>  (85) 
False

>  <enamine_id>  (85) 
nan

$$$$

     RDKit          3D

 40 42  0  0  0  0  0  0  0  0999 V2000
   -6.0946   -2.0122  -23.4244 O   0  0  0  0  0  0  0  0  0  0  0  0
   -6.3174   -2.3292  -22.2632 C   0  0  0  0  0  0  0  0  0  0  0  0
   -7.2808   -1.5171  -21.3650 C   0  0  0  0  0  0  0  0  0  0  0  0
   -6.5774   -0.8493  -20.2018 C   0  0  0  0  0  0  0  0  0  0  0  0
   -6.9411   -1.0460  -18.8908 C   0  0  0  0  0  0  0  0  0  0  0  0
   -6.2781   -0.5529  -17.8151 N   0  0  0  0  0  0  0  0  0  0  0  0
   -5.2181    0.1839  -18.0496 C   0  0  0  0  0  0  0  0  0  0  0  0
   -4.7566    0.5198  -19.3520 C   0  0  0  0  0  0  0  0  0  0  0  0
   -3.6422    1.3686  -19.5804 C   0  0  0  0  0  0  0  0  0  0  0  0
   -3.2915    1.7247  -20.8525 C   0  0  0  0  0  0  0  0  0  0  0  0
   -4.0211    1.2356  -21.9558 C   0  0  0  0  0  0  0  0  0  0  0  0
   -5.0700    0.3769  -21.7700 C   0  0  0  0  0  0  0  0  0  0  0  0
   -5.4687    0.0054  -20.4576 C   0  0  0  0  0  0  0  0  0  0  0  0
   -5.5955   -0.0290  -22.6271 H   0  0  0  0  0  0  0  0  0  0  0  0
   -3.7334    1.5185  -22.9645 H   0  0  0  0  0  0  0  0  0  0  0  0
   -2.4567    2.3978  -21.0302 H   0  0  0  0  0  0  0  0  0  0  0  0
   -3.0948    1.7540  -18.7244 H   0  0  0  0  0  0  0  0  0  0  0  0
   -4.6858    0.5771  -17.1844 H   0  0  0  0  0  0  0  0  0  0  0  0
   -7.8098   -1.6590  -18.6404 H   0  0  0  0  0  0  0  0  0  0  0  0
   -7.7828   -0.7785  -22.0005 H   0  0  0  0  0  0  0  0  0  0  0  0
   -8.0797   -2.1759  -21.0068 H   0  0  0  0  0  0  0  0  0  0  0  0
   -5.7050   -3.4041  -21.6756 N   0  0  0  0  0  0  0  0  0  0  0  0
   -5.9686   -3.8409  -20.3225 C   0  0  0  0  0  0  0  0  0  0  0  0
   -6.2335   -5.3325  -20.3069 C   0  0  0  0  0  0  0  0  0  0  0  0
   -5.0115   -6.0702  -20.8016 C   0  0  0  0  0  0  0  0  0  0  0  0
   -5.2391   -7.5752  -20.7912 C   0  0  0  0  0  0  0  0  0  0  0  0
   -6.2037   -7.9133  -21.6997 F   0  0  0  0  0  0  0  0  0  0  0  0
   -5.6883   -7.9576  -19.5585 F   0  0  0  0  0  0  0  0  0  0  0  0
   -4.3375   -8.1682  -21.0039 H   0  0  0  0  0  0  0  0  0  0  0  0
   -4.5691   -5.5531  -22.1756 C   0  0  0  0  0  0  0  0  0  0  0  0
   -4.5270   -4.0254  -22.2716 C   0  0  0  0  0  0  0  0  0  0  0  0
   -4.4828   -3.7109  -23.3116 H   0  0  0  0  0  0  0  0  0  0  0  0
   -3.6181   -3.6443  -21.7863 H   0  0  0  0  0  0  0  0  0  0  0  0
   -5.2661   -5.9407  -22.9259 H   0  0  0  0  0  0  0  0  0  0  0  0
   -3.5798   -5.9567  -22.4327 H   0  0  0  0  0  0  0  0  0  0  0  0
   -4.2862   -5.8826  -20.0135 H   0  0  0  0  0  0  0  0  0  0  0  0
   -7.0977   -5.5786  -20.9291 H   0  0  0  0  0  0  0  0  0  0  0  0
   -6.4214   -5.6424  -19.2789 H   0  0  0  0  0  0  0  0  0  0  0  0
   -6.8296   -3.3160  -19.9211 H   0  0  0  0  0  0  0  0  0  0  0  0
   -5.0943   -3.6153  -19.6937 H   0  0  0  0  0  0  0  0  0  0  0  0
  1  2  2  0
  2  3  1  0
  3  4  1  0
  4  5  2  0
  5  6  1  0
  6  7  2  0
  7  8  1  0
  8  9  2  0
  9 10  1  0
 10 11  2  0
 11 12  1  0
 12 13  2  0
 12 14  1  0
 11 15  1  0
 10 16  1  0
  9 17  1  0
  7 18  1  0
  5 19  1  0
  3 20  1  0
  3 21  1  0
  2 22  1  0
 22 23  1  0
 23 24  1  0
 24 25  1  0
 25 26  1  0
 26 27  1  0
 26 28  1  0
 26 29  1  0
 25 30  1  0
 30 31  1  0
 31 32  1  0
 31 33  1  0
 30 34  1  0
 30 35  1  0
 25 36  1  0
 24 37  1  0
 24 38  1  0
 23 39  1  0
 23 40  1  0
 13  4  1  0
 31 22  1  0
 13  8  1  0
M  END
>  <cnnaffinities>  (86) 
[3.91322, 4.42878, 4.29755, 4.29751, 3.95432, 4.40931, 4.40939, 4.65756, 4.32452, 4.32168, 4.32174, 4.20621, 4.25161, 4.2515, 4.19074, 4.1437, 4.23692, 4.27368]

>  <score>  (86) 
3.91322

>  <index>  (86) 
88

>  <Smiles>  (86) 
O=C(C(c1c(nc(c2c(c(c(c(c12)[H])[H])[H])[H])[H])[H])([H])[H])N1C(C(C(C(F)(F)[H])(C(C1([H])[H])([H])[H])[H])([H])[H])([H])[H]

>  <h>  (86) 
<NA>

>  <Training>  (86) 
True

>  <Success>  (86) 
True

>  <enamine_searched>  (86) 
False

>  <enamine_id>  (86) 
nan

$$$$

     RDKit          3D

 43 45  0  0  0  0  0  0  0  0999 V2000
   -6.2430    1.4930  -26.6544 C   0  0  0  0  0  0  0  0  0  0  0  0
   -7.4235    1.1168  -25.7531 C   0  0  0  0  0  0  0  0  0  0  0  0
   -8.7198    1.3567  -26.5363 C   0  0  0  0  0  0  0  0  0  0  0  0
   -9.6199    1.1195  -25.9643 H   0  0  0  0  0  0  0  0  0  0  0  0
   -8.7449    0.7481  -27.4466 H   0  0  0  0  0  0  0  0  0  0  0  0
   -8.7979    2.4055  -26.8423 H   0  0  0  0  0  0  0  0  0  0  0  0
   -7.2934   -0.3584  -25.3502 C   0  0  0  0  0  0  0  0  0  0  0  0
   -8.2739   -0.7736  -24.2602 C   0  0  0  0  0  0  0  0  0  0  0  0
   -8.1741    0.1175  -23.1111 N   0  0  0  0  0  0  0  0  0  0  0  0
   -8.3850   -0.3129  -21.7963 C   0  0  0  0  0  0  0  0  0  0  0  0
   -9.1965    0.2041  -21.0604 O   0  0  0  0  0  0  0  0  0  0  0  0
   -7.4458   -1.4119  -21.2718 C   0  0  0  0  0  0  0  0  0  0  0  0
   -6.5720   -0.8354  -20.1761 C   0  0  0  0  0  0  0  0  0  0  0  0
   -6.8772   -1.0417  -18.8563 C   0  0  0  0  0  0  0  0  0  0  0  0
   -6.1881   -0.5408  -17.7966 N   0  0  0  0  0  0  0  0  0  0  0  0
   -5.1552    0.2210  -18.0649 C   0  0  0  0  0  0  0  0  0  0  0  0
   -4.7239    0.5354  -19.3803 C   0  0  0  0  0  0  0  0  0  0  0  0
   -3.6030    1.3707  -19.6200 C   0  0  0  0  0  0  0  0  0  0  0  0
   -3.2226    1.6751  -20.8982 C   0  0  0  0  0  0  0  0  0  0  0  0
   -3.9575    1.1577  -21.9884 C   0  0  0  0  0  0  0  0  0  0  0  0
   -5.0297    0.3261  -21.7832 C   0  0  0  0  0  0  0  0  0  0  0  0
   -5.4524   -0.0014  -20.4701 C   0  0  0  0  0  0  0  0  0  0  0  0
   -5.5522   -0.0864  -22.6386 H   0  0  0  0  0  0  0  0  0  0  0  0
   -3.6244    1.3764  -22.9985 H   0  0  0  0  0  0  0  0  0  0  0  0
   -2.3609    2.3091  -21.0864 H   0  0  0  0  0  0  0  0  0  0  0  0
   -3.0634    1.7809  -18.7700 H   0  0  0  0  0  0  0  0  0  0  0  0
   -4.6027    0.6272  -17.2157 H   0  0  0  0  0  0  0  0  0  0  0  0
   -7.7294   -1.6605  -18.5824 H   0  0  0  0  0  0  0  0  0  0  0  0
   -8.0665   -2.2080  -20.8447 H   0  0  0  0  0  0  0  0  0  0  0  0
   -6.8367   -1.8400  -22.0774 H   0  0  0  0  0  0  0  0  0  0  0  0
   -8.3840    1.5277  -23.4125 C   0  0  0  0  0  0  0  0  0  0  0  0
   -7.3923    1.9815  -24.4848 C   0  0  0  0  0  0  0  0  0  0  0  0
   -7.5795    3.0266  -24.7523 H   0  0  0  0  0  0  0  0  0  0  0  0
   -6.3825    1.9555  -24.0540 H   0  0  0  0  0  0  0  0  0  0  0  0
   -9.4179    1.7510  -23.7178 H   0  0  0  0  0  0  0  0  0  0  0  0
   -8.2173    2.0831  -22.4896 H   0  0  0  0  0  0  0  0  0  0  0  0
   -9.2977   -0.7962  -24.6737 H   0  0  0  0  0  0  0  0  0  0  0  0
   -8.0670   -1.7878  -23.9236 H   0  0  0  0  0  0  0  0  0  0  0  0
   -6.2776   -0.5393  -24.9812 H   0  0  0  0  0  0  0  0  0  0  0  0
   -7.4232   -0.9916  -26.2347 H   0  0  0  0  0  0  0  0  0  0  0  0
   -5.2851    1.3413  -26.1447 H   0  0  0  0  0  0  0  0  0  0  0  0
   -6.2930    2.5451  -26.9585 H   0  0  0  0  0  0  0  0  0  0  0  0
   -6.2310    0.8851  -27.5668 H   0  0  0  0  0  0  0  0  0  0  0  0
  1  2  1  0
  2  3  1  0
  3  4  1  0
  3  5  1  0
  3  6  1  0
  2  7  1  0
  7  8  1  0
  8  9  1  0
  9 10  1  0
 10 11  2  0
 10 12  1  0
 12 13  1  0
 13 14  2  0
 14 15  1  0
 15 16  2  0
 16 17  1  0
 17 18  2  0
 18 19  1  0
 19 20  2  0
 20 21  1  0
 21 22  2  0
 21 23  1  0
 20 24  1  0
 19 25  1  0
 18 26  1  0
 16 27  1  0
 14 28  1  0
 12 29  1  0
 12 30  1  0
  9 31  1  0
 31 32  1  0
 32 33  1  0
 32 34  1  0
 31 35  1  0
 31 36  1  0
  8 37  1  0
  8 38  1  0
  7 39  1  0
  7 40  1  0
  1 41  1  0
  1 42  1  0
  1 43  1  0
 32  2  1  0
 22 13  1  0
 22 17  1  0
M  END
>  <cnnaffinities>  (87) 
[4.34798, 4.34799, 4.34811, 4.3481, 4.80229, 4.67739, 4.6774, 4.67736, 4.37726, 4.37725, 4.37728, 4.37295]

>  <score>  (87) 
4.34798

>  <index>  (87) 
89

>  <Smiles>  (87) 
C(C1(C([H])([H])[H])C(C(N(C(=O)C(c2c(nc(c3c(c(c(c(c23)[H])[H])[H])[H])[H])[H])([H])[H])C(C1([H])[H])([H])[H])([H])[H])([H])[H])([H])([H])[H]

>  <h>  (87) 
<NA>

>  <Training>  (87) 
True

>  <Success>  (87) 
True

>  <enamine_searched>  (87) 
False

>  <enamine_id>  (87) 
nan

$$$$

     RDKit          3D

 64 68  0  0  0  0  0  0  0  0999 V2000
   -7.4715    3.3152  -21.8127 C   0  0  0  0  0  0  0  0  0  0  0  0
   -8.5073    2.8280  -22.7151 N   0  0  0  0  0  0  0  0  0  0  0  0
   -8.0875    2.0981  -23.7894 C   0  0  0  0  0  0  0  0  0  0  0  0
   -6.9002    1.8964  -24.0156 O   0  0  0  0  0  0  0  0  0  0  0  0
   -9.1496    1.5143  -24.7220 C   0  0  0  0  0  0  0  0  0  0  0  0
   -9.7230    0.3209  -24.1376 N   0  0  0  0  0  0  0  0  0  0  0  0
   -8.9125   -0.8821  -24.0564 C   0  0  0  0  0  0  0  0  0  0  0  0
   -9.1688   -1.6555  -22.7450 C   0  0  2  0  0  0  0  0  0  0  0  0
   -8.6181   -0.8541  -21.5438 C   0  0  0  0  0  0  0  0  0  0  0  0
   -9.1235    0.1055  -21.0035 O   0  0  0  0  0  0  0  0  0  0  0  0
   -7.4081   -1.4048  -21.1866 N   0  0  0  0  0  0  0  0  0  0  0  0
   -6.6164   -0.8228  -20.1705 C   0  0  0  0  0  0  0  0  0  0  0  0
   -6.9287   -1.0553  -18.8562 C   0  0  0  0  0  0  0  0  0  0  0  0
   -6.2240   -0.5737  -17.8057 N   0  0  0  0  0  0  0  0  0  0  0  0
   -5.1909    0.1893  -18.0732 C   0  0  0  0  0  0  0  0  0  0  0  0
   -4.7650    0.5233  -19.3900 C   0  0  0  0  0  0  0  0  0  0  0  0
   -3.6459    1.3654  -19.6264 C   0  0  0  0  0  0  0  0  0  0  0  0
   -3.2790    1.6895  -20.9026 C   0  0  0  0  0  0  0  0  0  0  0  0
   -4.0153    1.1961  -22.0012 C   0  0  0  0  0  0  0  0  0  0  0  0
   -5.0922    0.3645  -21.8034 C   0  0  0  0  0  0  0  0  0  0  0  0
   -5.4941    0.0034  -20.4870 C   0  0  0  0  0  0  0  0  0  0  0  0
   -5.6516    0.0118  -22.6646 H   0  0  0  0  0  0  0  0  0  0  0  0
   -3.7112    1.4553  -23.0113 H   0  0  0  0  0  0  0  0  0  0  0  0
   -2.4186    2.3269  -21.0818 H   0  0  0  0  0  0  0  0  0  0  0  0
   -3.1039    1.7528  -18.7685 H   0  0  0  0  0  0  0  0  0  0  0  0
   -4.6237    0.5815  -17.2271 H   0  0  0  0  0  0  0  0  0  0  0  0
   -7.7925   -1.6697  -18.6155 H   0  0  0  0  0  0  0  0  0  0  0  0
   -7.0102   -2.5585  -21.9615 C   0  0  0  0  0  0  0  0  0  0  0  0
   -8.3130   -2.9526  -22.6823 C   0  0  2  0  0  0  0  0  0  0  0  0
   -8.0760   -3.6829  -24.0057 C   0  0  0  0  0  0  0  0  0  0  0  0
   -7.3186   -5.2691  -23.6922 S   0  0  0  0  0  0  0  0  0  0  0  0
   -5.9122   -5.0989  -23.3541 O   0  0  0  0  0  0  0  0  0  0  0  0
   -8.1943   -5.9758  -22.7709 O   0  0  0  0  0  0  0  0  0  0  0  0
   -7.3067   -5.9589  -25.2144 N   0  0  0  0  0  0  0  0  0  0  0  0
   -8.5383   -6.4324  -25.8462 C   0  0  0  0  0  0  0  0  0  0  0  0
   -9.1381   -5.5882  -26.1993 H   0  0  0  0  0  0  0  0  0  0  0  0
   -8.2560   -7.0030  -26.7369 H   0  0  0  0  0  0  0  0  0  0  0  0
   -9.1436   -7.0690  -25.1920 H   0  0  0  0  0  0  0  0  0  0  0  0
   -6.5668   -6.6498  -25.2100 H   0  0  0  0  0  0  0  0  0  0  0  0
   -7.4197   -3.1360  -24.6844 H   0  0  0  0  0  0  0  0  0  0  0  0
   -9.0211   -3.8632  -24.5278 H   0  0  0  0  0  0  0  0  0  0  0  0
   -8.8319   -3.6670  -22.0436 H   0  0  0  0  0  0  0  0  0  0  0  0
   -6.6461   -3.3545  -21.3088 H   0  0  0  0  0  0  0  0  0  0  0  0
   -6.2013   -2.3184  -22.6686 H   0  0  0  0  0  0  0  0  0  0  0  0
  -10.6679   -1.8301  -22.6107 C   0  0  0  0  0  0  0  0  0  0  0  0
  -11.2161   -2.8299  -21.8062 C   0  0  0  0  0  0  0  0  0  0  0  0
  -12.5833   -2.8718  -21.6174 C   0  0  0  0  0  0  0  0  0  0  0  0
  -13.0854   -3.7909  -20.7820 F   0  0  0  0  0  0  0  0  0  0  0  0
  -13.4762   -2.0010  -22.2278 C   0  0  0  0  0  0  0  0  0  0  0  0
  -12.9359   -1.0093  -23.0128 C   0  0  0  0  0  0  0  0  0  0  0  0
  -11.5578   -0.9005  -23.1703 C   0  0  0  0  0  0  0  0  0  0  0  0
  -11.0643    0.2976  -23.9081 C   0  0  0  0  0  0  0  0  0  0  0  0
  -11.8078    1.2058  -24.2612 O   0  0  0  0  0  0  0  0  0  0  0  0
  -13.5540   -0.2704  -23.5042 H   0  0  0  0  0  0  0  0  0  0  0  0
  -14.5440   -2.1003  -22.0597 H   0  0  0  0  0  0  0  0  0  0  0  0
  -10.6022   -3.5685  -21.3033 H   0  0  0  0  0  0  0  0  0  0  0  0
   -7.8591   -0.6000  -24.1355 H   0  0  0  0  0  0  0  0  0  0  0  0
   -9.1493   -1.5406  -24.9004 H   0  0  0  0  0  0  0  0  0  0  0  0
   -9.9826    2.1983  -24.9222 H   0  0  0  0  0  0  0  0  0  0  0  0
   -8.6492    1.2633  -25.6662 H   0  0  0  0  0  0  0  0  0  0  0  0
   -9.4297    2.6862  -22.3200 H   0  0  0  0  0  0  0  0  0  0  0  0
   -6.8300    4.0337  -22.3326 H   0  0  0  0  0  0  0  0  0  0  0  0
   -6.8684    2.4644  -21.4592 H   0  0  0  0  0  0  0  0  0  0  0  0
   -7.9260    3.8476  -20.9745 H   0  0  0  0  0  0  0  0  0  0  0  0
  1  2  1  0
  2  3  1  0
  3  4  2  0
  3  5  1  0
  5  6  1  0
  6  7  1  0
  8  7  1  6
  8  9  1  0
  9 10  2  0
  9 11  1  0
 11 12  1  0
 12 13  2  0
 13 14  1  0
 14 15  2  0
 15 16  1  0
 16 17  2  0
 17 18  1  0
 18 19  2  0
 19 20  1  0
 20 21  2  0
 20 22  1  0
 19 23  1  0
 18 24  1  0
 17 25  1  0
 15 26  1  0
 13 27  1  0
 11 28  1  0
 28 29  1  0
 29 30  1  0
 30 31  1  0
 31 32  2  0
 31 33  2  0
 31 34  1  0
 34 35  1  0
 35 36  1  0
 35 37  1  0
 35 38  1  0
 34 39  1  0
 30 40  1  0
 30 41  1  0
 29 42  1  1
 28 43  1  0
 28 44  1  0
  8 45  1  0
 45 46  2  0
 46 47  1  0
 47 48  1  0
 47 49  2  0
 49 50  1  0
 50 51  2  0
 51 52  1  0
 52 53  2  0
 50 54  1  0
 49 55  1  0
 46 56  1  0
  7 57  1  0
  7 58  1  0
  5 59  1  0
  5 60  1  0
  2 61  1  0
  1 62  1  0
  1 63  1  0
  1 64  1  0
 52  6  1  0
 29  8  1  0
 51 45  1  0
 21 12  1  0
 21 16  1  0
M  END
>  <cnnaffinities>  (88) 
[6.32626, 6.12843]

>  <score>  (88) 
6.32626

>  <index>  (88) 
90

>  <Smiles>  (88) 
C(N(C(=O)C(N1C([C@@]2(C(=O)N(c3c(nc(c4c(c(c(c(c34)[H])[H])[H])[H])[H])[H])C([C@@]2(C(S(=O)(=O)N(C([H])([H])[H])[H])([H])[H])[H])([H])[H])c2c(c(F)c(c(c2C1=O)[H])[H])[H])([H])[H])([H])[H])[H])([H])([H])[H]

>  <h>  (88) 
<NA>

>  <Training>  (88) 
True

>  <Success>  (88) 
True

>  <enamine_searched>  (88) 
False

>  <enamine_id>  (88) 
nan

$$$$

     RDKit          3D

 66 71  0  0  0  0  0  0  0  0999 V2000
   -8.2308   -4.7511  -28.8808 C   0  0  0  0  0  0  0  0  0  0  0  0
   -8.0982   -3.3595  -28.4841 N   0  0  0  0  0  0  0  0  0  0  0  0
   -7.3704   -3.0841  -27.3683 C   0  0  0  0  0  0  0  0  0  0  0  0
   -6.7200   -3.9259  -26.7672 O   0  0  0  0  0  0  0  0  0  0  0  0
   -7.4457   -1.6350  -26.9007 C   0  0  0  0  0  0  0  0  0  0  0  0
   -8.3496   -1.5508  -25.7665 N   0  0  0  0  0  0  0  0  0  0  0  0
   -7.8160   -1.1381  -24.4787 C   0  0  0  0  0  0  0  0  0  0  0  0
   -8.6927   -1.5431  -23.2637 C   0  0  2  0  0  0  0  0  0  0  0  0
   -8.1930   -0.6506  -22.1072 C   0  0  0  0  0  0  0  0  0  0  0  0
   -8.3664    0.5447  -21.9785 O   0  0  0  0  0  0  0  0  0  0  0  0
   -7.4321   -1.4121  -21.2471 N   0  0  0  0  0  0  0  0  0  0  0  0
   -6.6378   -0.8310  -20.2279 C   0  0  0  0  0  0  0  0  0  0  0  0
   -6.9280   -1.1089  -18.9181 C   0  0  0  0  0  0  0  0  0  0  0  0
   -6.2488   -0.6198  -17.8532 N   0  0  0  0  0  0  0  0  0  0  0  0
   -5.2302    0.1671  -18.1044 C   0  0  0  0  0  0  0  0  0  0  0  0
   -4.8031    0.5172  -19.4150 C   0  0  0  0  0  0  0  0  0  0  0  0
   -3.6763    1.3554  -19.6177 C   0  0  0  0  0  0  0  0  0  0  0  0
   -3.2763    1.6831  -20.8816 C   0  0  0  0  0  0  0  0  0  0  0  0
   -3.9862    1.1881  -21.9983 C   0  0  0  0  0  0  0  0  0  0  0  0
   -5.0604    0.3528  -21.8322 C   0  0  0  0  0  0  0  0  0  0  0  0
   -5.5155    0.0092  -20.5248 C   0  0  0  0  0  0  0  0  0  0  0  0
   -5.5649   -0.0437  -22.7090 H   0  0  0  0  0  0  0  0  0  0  0  0
   -3.6487    1.4480  -22.9975 H   0  0  0  0  0  0  0  0  0  0  0  0
   -2.4054    2.3127  -21.0380 H   0  0  0  0  0  0  0  0  0  0  0  0
   -3.1452    1.7260  -18.7451 H   0  0  0  0  0  0  0  0  0  0  0  0
   -4.6772    0.5635  -17.2512 H   0  0  0  0  0  0  0  0  0  0  0  0
   -7.7747   -1.7539  -18.6887 H   0  0  0  0  0  0  0  0  0  0  0  0
   -7.3010   -2.7973  -21.6473 C   0  0  0  0  0  0  0  0  0  0  0  0
   -8.4235   -2.9768  -22.6723 C   0  0  2  0  0  0  0  0  0  0  0  0
   -8.1040   -4.1049  -23.6464 C   0  0  0  0  0  0  0  0  0  0  0  0
   -9.3048   -4.5383  -24.3235 N   0  0  0  0  0  0  0  0  0  0  0  0
   -9.2680   -5.5707  -25.2180 C   0  0  0  0  0  0  0  0  0  0  0  0
  -10.3842   -5.8468  -26.0406 C   0  0  0  0  0  0  0  0  0  0  0  0
  -10.3858   -6.8291  -26.9198 N   0  0  0  0  0  0  0  0  0  0  0  0
   -9.2791   -7.5804  -26.9933 C   0  0  0  0  0  0  0  0  0  0  0  0
   -8.1897   -7.3140  -26.1921 C   0  0  0  0  0  0  0  0  0  0  0  0
   -8.1670   -6.3137  -25.3008 N   0  0  0  0  0  0  0  0  0  0  0  0
   -7.2783   -7.8973  -26.2939 H   0  0  0  0  0  0  0  0  0  0  0  0
   -9.2654   -8.3848  -27.7255 H   0  0  0  0  0  0  0  0  0  0  0  0
  -11.2774   -5.2353  -25.9865 H   0  0  0  0  0  0  0  0  0  0  0  0
  -10.0555   -3.8657  -24.4151 H   0  0  0  0  0  0  0  0  0  0  0  0
   -7.3311   -3.8149  -24.3758 H   0  0  0  0  0  0  0  0  0  0  0  0
   -7.7161   -4.9667  -23.0894 H   0  0  0  0  0  0  0  0  0  0  0  0
   -9.3327   -3.2606  -22.1190 H   0  0  0  0  0  0  0  0  0  0  0  0
   -7.4110   -3.4611  -20.7856 H   0  0  0  0  0  0  0  0  0  0  0  0
   -6.3107   -3.0050  -22.0839 H   0  0  0  0  0  0  0  0  0  0  0  0
  -10.1499   -1.2869  -23.6045 C   0  0  0  0  0  0  0  0  0  0  0  0
  -11.0947   -1.0861  -22.5902 C   0  0  0  0  0  0  0  0  0  0  0  0
  -12.4343   -0.9208  -22.9065 C   0  0  0  0  0  0  0  0  0  0  0  0
  -13.6050   -0.7402  -21.6429 Cl  0  0  0  0  0  0  0  0  0  0  0  0
  -12.8863   -0.9230  -24.2241 C   0  0  0  0  0  0  0  0  0  0  0  0
  -11.9582   -1.1290  -25.2257 C   0  0  0  0  0  0  0  0  0  0  0  0
  -10.6077   -1.2920  -24.9267 C   0  0  0  0  0  0  0  0  0  0  0  0
   -9.6761   -1.4821  -26.0705 C   0  0  0  0  0  0  0  0  0  0  0  0
  -10.0842   -1.5795  -27.2296 O   0  0  0  0  0  0  0  0  0  0  0  0
  -12.2545   -1.1712  -26.2664 H   0  0  0  0  0  0  0  0  0  0  0  0
  -13.9370   -0.7602  -24.4512 H   0  0  0  0  0  0  0  0  0  0  0  0
  -10.7720   -1.0377  -21.5569 H   0  0  0  0  0  0  0  0  0  0  0  0
   -6.8163   -1.5804  -24.3688 H   0  0  0  0  0  0  0  0  0  0  0  0
   -7.6983   -0.0435  -24.4579 H   0  0  0  0  0  0  0  0  0  0  0  0
   -6.4623   -1.2962  -26.5807 H   0  0  0  0  0  0  0  0  0  0  0  0
   -7.7966   -0.9813  -27.7036 H   0  0  0  0  0  0  0  0  0  0  0  0
   -8.8563   -2.7237  -28.6945 H   0  0  0  0  0  0  0  0  0  0  0  0
   -9.1231   -4.8817  -29.4957 H   0  0  0  0  0  0  0  0  0  0  0  0
   -8.3149   -5.3767  -27.9879 H   0  0  0  0  0  0  0  0  0  0  0  0
   -7.3548   -5.0894  -29.4450 H   0  0  0  0  0  0  0  0  0  0  0  0
  1  2  1  0
  2  3  1  0
  3  4  2  0
  3  5  1  0
  5  6  1  0
  6  7  1  0
  8  7  1  6
  8  9  1  0
  9 10  2  0
  9 11  1  0
 11 12  1  0
 12 13  2  0
 13 14  1  0
 14 15  2  0
 15 16  1  0
 16 17  2  0
 17 18  1  0
 18 19  2  0
 19 20  1  0
 20 21  2  0
 20 22  1  0
 19 23  1  0
 18 24  1  0
 17 25  1  0
 15 26  1  0
 13 27  1  0
 11 28  1  0
 28 29  1  0
 29 30  1  0
 30 31  1  0
 31 32  1  0
 32 33  2  0
 33 34  1  0
 34 35  2  0
 35 36  1  0
 36 37  2  0
 36 38  1  0
 35 39  1  0
 33 40  1  0
 31 41  1  0
 30 42  1  0
 30 43  1  0
 29 44  1  1
 28 45  1  0
 28 46  1  0
  8 47  1  0
 47 48  2  0
 48 49  1  0
 49 50  1  0
 49 51  2  0
 51 52  1  0
 52 53  2  0
 53 54  1  0
 54 55  2  0
 52 56  1  0
 51 57  1  0
 48 58  1  0
  7 59  1  0
  7 60  1  0
  5 61  1  0
  5 62  1  0
  2 63  1  0
  1 64  1  0
  1 65  1  0
  1 66  1  0
 54  6  1  0
 29  8  1  0
 37 32  1  0
 53 47  1  0
 21 12  1  0
 21 16  1  0
M  END
>  <cnnaffinities>  (89) 
[5.652, 6.15953, 6.7562]

>  <score>  (89) 
5.652

>  <index>  (89) 
91

>  <Smiles>  (89) 
C(N(C(=O)C(N1C([C@@]2(C(=O)N(c3c(nc(c4c(c(c(c(c34)[H])[H])[H])[H])[H])[H])C([C@@]2(C(N(c2c(nc(c(n2)[H])[H])[H])[H])([H])[H])[H])([H])[H])c2c(c(Cl)c(c(c2C1=O)[H])[H])[H])([H])[H])([H])[H])[H])([H])([H])[H]

>  <h>  (89) 
<NA>

>  <Training>  (89) 
True

>  <Success>  (89) 
True

>  <enamine_searched>  (89) 
False

>  <enamine_id>  (89) 
nan

$$$$

     RDKit          3D

 60 65  0  0  0  0  0  0  0  0999 V2000
   -6.7829   -3.4356  -26.0879 C   0  0  0  0  0  0  0  0  0  0  0  0
   -7.0152   -2.8959  -24.8117 O   0  0  0  0  0  0  0  0  0  0  0  0
   -7.9979   -3.5966  -24.0790 C   0  0  0  0  0  0  0  0  0  0  0  0
   -8.3058   -2.8833  -22.7630 C   0  0  1  0  0  0  0  0  0  0  0  0
   -7.0324   -2.5411  -21.9739 C   0  0  0  0  0  0  0  0  0  0  0  0
   -7.3931   -1.3431  -21.2415 N   0  0  0  0  0  0  0  0  0  0  0  0
   -6.6137   -0.7998  -20.1905 C   0  0  0  0  0  0  0  0  0  0  0  0
   -6.9347   -1.0469  -18.8821 C   0  0  0  0  0  0  0  0  0  0  0  0
   -6.2309   -0.5749  -17.8234 N   0  0  0  0  0  0  0  0  0  0  0  0
   -5.1969    0.1907  -18.0805 C   0  0  0  0  0  0  0  0  0  0  0  0
   -4.7646    0.5409  -19.3913 C   0  0  0  0  0  0  0  0  0  0  0  0
   -3.6524    1.3934  -19.6237 C   0  0  0  0  0  0  0  0  0  0  0  0
   -3.2831    1.7113  -20.9021 C   0  0  0  0  0  0  0  0  0  0  0  0
   -3.9926    1.1872  -22.0020 C   0  0  0  0  0  0  0  0  0  0  0  0
   -5.0386    0.3180  -21.8018 C   0  0  0  0  0  0  0  0  0  0  0  0
   -5.4763    0.0070  -20.4882 C   0  0  0  0  0  0  0  0  0  0  0  0
   -5.5440   -0.1284  -22.6528 H   0  0  0  0  0  0  0  0  0  0  0  0
   -3.6736    1.4512  -23.0078 H   0  0  0  0  0  0  0  0  0  0  0  0
   -2.4233    2.3500  -21.0792 H   0  0  0  0  0  0  0  0  0  0  0  0
   -3.1111    1.7810  -18.7662 H   0  0  0  0  0  0  0  0  0  0  0  0
   -4.6412    0.5799  -17.2263 H   0  0  0  0  0  0  0  0  0  0  0  0
   -7.7987   -1.6638  -18.6452 H   0  0  0  0  0  0  0  0  0  0  0  0
   -8.6169   -0.8089  -21.5770 C   0  0  0  0  0  0  0  0  0  0  0  0
   -9.1698    0.0851  -20.9697 O   0  0  0  0  0  0  0  0  0  0  0  0
   -9.1538   -1.5716  -22.8135 C   0  0  1  0  0  0  0  0  0  0  0  0
   -8.8878   -0.7865  -24.1257 C   0  0  0  0  0  0  0  0  0  0  0  0
   -9.7238    0.3950  -24.2447 N   0  0  0  0  0  0  0  0  0  0  0  0
   -9.1364    1.6249  -24.7645 C   0  0  0  0  0  0  0  0  0  0  0  0
   -8.3293    2.3904  -23.7451 C   0  0  0  0  0  0  0  0  0  0  0  0
   -8.8501    3.3065  -22.7970 C   0  0  0  0  0  0  0  0  0  0  0  0
   -7.9084    3.7734  -21.9736 N   0  0  0  0  0  0  0  0  0  0  0  0
   -6.7907    3.1733  -22.3894 N   0  0  0  0  0  0  0  0  0  0  0  0
   -6.9821    2.3390  -23.4431 C   0  0  0  0  0  0  0  0  0  0  0  0
   -6.1334    1.7941  -23.8349 H   0  0  0  0  0  0  0  0  0  0  0  0
   -5.8985    3.3410  -21.9433 H   0  0  0  0  0  0  0  0  0  0  0  0
   -9.8679    3.6601  -22.6796 H   0  0  0  0  0  0  0  0  0  0  0  0
   -8.5336    1.3672  -25.6411 H   0  0  0  0  0  0  0  0  0  0  0  0
   -9.9750    2.2344  -25.1153 H   0  0  0  0  0  0  0  0  0  0  0  0
  -11.0681    0.3653  -23.9924 C   0  0  0  0  0  0  0  0  0  0  0  0
  -11.8211    1.2682  -24.3273 O   0  0  0  0  0  0  0  0  0  0  0  0
  -11.5547   -0.8365  -23.2468 C   0  0  0  0  0  0  0  0  0  0  0  0
  -12.9325   -0.9580  -23.0674 C   0  0  0  0  0  0  0  0  0  0  0  0
  -13.4424   -1.9251  -22.2301 C   0  0  0  0  0  0  0  0  0  0  0  0
  -12.5478   -2.7597  -21.5671 C   0  0  0  0  0  0  0  0  0  0  0  0
  -13.1879   -3.8540  -20.3897 Cl  0  0  0  0  0  0  0  0  0  0  0  0
  -11.1829   -2.6930  -21.7834 C   0  0  0  0  0  0  0  0  0  0  0  0
  -10.6572   -1.7404  -22.6629 C   0  0  0  0  0  0  0  0  0  0  0  0
  -10.5372   -3.3646  -21.2323 H   0  0  0  0  0  0  0  0  0  0  0  0
  -14.5073   -2.0160  -22.0485 H   0  0  0  0  0  0  0  0  0  0  0  0
  -13.5743   -0.2477  -23.5755 H   0  0  0  0  0  0  0  0  0  0  0  0
   -9.0706   -1.4712  -24.9648 H   0  0  0  0  0  0  0  0  0  0  0  0
   -7.8419   -0.4731  -24.1687 H   0  0  0  0  0  0  0  0  0  0  0  0
   -6.1844   -2.3649  -22.6457 H   0  0  0  0  0  0  0  0  0  0  0  0
   -6.7608   -3.3495  -21.2850 H   0  0  0  0  0  0  0  0  0  0  0  0
   -8.8837   -3.5999  -22.1740 H   0  0  0  0  0  0  0  0  0  0  0  0
   -7.6339   -4.6108  -23.8584 H   0  0  0  0  0  0  0  0  0  0  0  0
   -8.9185   -3.6977  -24.6766 H   0  0  0  0  0  0  0  0  0  0  0  0
   -6.0193   -2.8228  -26.5747 H   0  0  0  0  0  0  0  0  0  0  0  0
   -6.4176   -4.4708  -26.0271 H   0  0  0  0  0  0  0  0  0  0  0  0
   -7.6935   -3.4193  -26.7053 H   0  0  0  0  0  0  0  0  0  0  0  0
  1  2  1  0
  2  3  1  0
  3  4  1  0
  4  5  1  0
  5  6  1  0
  6  7  1  0
  7  8  2  0
  8  9  1  0
  9 10  2  0
 10 11  1  0
 11 12  2  0
 12 13  1  0
 13 14  2  0
 14 15  1  0
 15 16  2  0
 15 17  1  0
 14 18  1  0
 13 19  1  0
 12 20  1  0
 10 21  1  0
  8 22  1  0
  6 23  1  0
 23 24  2  0
 23 25  1  0
 25 26  1  6
 26 27  1  0
 27 28  1  0
 28 29  1  0
 29 30  1  0
 30 31  2  0
 31 32  1  0
 32 33  1  0
 33 34  1  0
 32 35  1  0
 30 36  1  0
 28 37  1  0
 28 38  1  0
 27 39  1  0
 39 40  2  0
 39 41  1  0
 41 42  2  0
 42 43  1  0
 43 44  2  0
 44 45  1  0
 44 46  1  0
 46 47  2  0
 46 48  1  0
 43 49  1  0
 42 50  1  0
 26 51  1  0
 26 52  1  0
  5 53  1  0
  5 54  1  0
  4 55  1  1
  3 56  1  0
  3 57  1  0
  1 58  1  0
  1 59  1  0
  1 60  1  0
 25  4  1  0
 33 29  2  0
 47 41  1  0
 16  7  1  0
 47 25  1  0
 16 11  1  0
M  END
>  <cnnaffinities>  (90) 
[6.45458, 5.97981]

>  <score>  (90) 
6.45458

>  <index>  (90) 
92

>  <Smiles>  (90) 
C(OC([C@]1(C(N(c2c(nc(c3c(c(c(c(c23)[H])[H])[H])[H])[H])[H])C(=O)[C@]21C(N(C(c1c(nn(c1[H])[H])[H])([H])[H])C(=O)c1c(c(c(Cl)c(c21)[H])[H])[H])([H])[H])([H])[H])[H])([H])[H])([H])([H])[H]

>  <h>  (90) 
<NA>

>  <Training>  (90) 
True

>  <Success>  (90) 
True

>  <enamine_searched>  (90) 
False

>  <enamine_id>  (90) 
nan

$$$$

     RDKit          3D

 62 67  0  0  0  0  0  0  0  0999 V2000
  -12.6665    4.2016  -22.8521 C   0  0  0  0  0  0  0  0  0  0  0  0
  -11.6130    2.4519  -21.5652 C   0  0  0  0  0  0  0  0  0  0  0  0
  -11.7590    3.1601  -22.8310 N   0  0  0  0  0  0  0  0  0  0  0  0
  -13.6844    4.3132  -23.6208 N   0  0  0  0  0  0  0  0  0  0  0  0
  -14.0579    3.1513  -24.2965 C   0  0  0  0  0  0  0  0  0  0  0  0
  -13.2542    2.0813  -24.4130 C   0  0  0  0  0  0  0  0  0  0  0  0
  -11.8362    2.3164  -24.0381 C   0  0  0  0  0  0  0  0  0  0  0  0
  -10.8256    1.1529  -24.0422 C   0  0  0  0  0  0  0  0  0  0  0  0
  -11.1335   -0.2017  -23.5793 N   0  0  0  0  0  0  0  0  0  0  0  0
  -10.0298   -1.1457  -23.8278 C   0  0  0  0  0  0  0  0  0  0  0  0
   -9.6704   -2.0339  -22.5928 C   0  0  2  0  0  0  0  0  0  0  0  0
   -9.0816   -1.0707  -21.5388 C   0  0  0  0  0  0  0  0  0  0  0  0
   -9.6726   -0.1973  -20.9365 O   0  0  0  0  0  0  0  0  0  0  0  0
   -7.7096   -1.2319  -21.4764 N   0  0  0  0  0  0  0  0  0  0  0  0
   -6.9610   -0.7222  -20.3885 C   0  0  0  0  0  0  0  0  0  0  0  0
   -7.3457   -1.0067  -19.0985 C   0  0  0  0  0  0  0  0  0  0  0  0
   -6.6624   -0.6283  -17.9919 N   0  0  0  0  0  0  0  0  0  0  0  0
   -5.5755    0.0847  -18.1596 C   0  0  0  0  0  0  0  0  0  0  0  0
   -5.0786    0.4811  -19.4306 C   0  0  0  0  0  0  0  0  0  0  0  0
   -3.9098    1.2774  -19.5595 C   0  0  0  0  0  0  0  0  0  0  0  0
   -3.4839    1.6801  -20.7947 C   0  0  0  0  0  0  0  0  0  0  0  0
   -4.2100    1.3157  -21.9506 C   0  0  0  0  0  0  0  0  0  0  0  0
   -5.3404    0.5422  -21.8515 C   0  0  0  0  0  0  0  0  0  0  0  0
   -5.7924    0.0862  -20.5862 C   0  0  0  0  0  0  0  0  0  0  0  0
   -5.9084    0.2954  -22.7423 H   0  0  0  0  0  0  0  0  0  0  0  0
   -3.8698    1.6530  -22.9246 H   0  0  0  0  0  0  0  0  0  0  0  0
   -2.5932    2.2947  -20.8967 H   0  0  0  0  0  0  0  0  0  0  0  0
   -3.3786    1.5703  -18.6571 H   0  0  0  0  0  0  0  0  0  0  0  0
   -5.0329    0.3905  -17.2626 H   0  0  0  0  0  0  0  0  0  0  0  0
   -8.2479   -1.5863  -18.9102 H   0  0  0  0  0  0  0  0  0  0  0  0
   -7.2246   -2.0985  -22.5408 C   0  0  0  0  0  0  0  0  0  0  0  0
   -8.4598   -2.9778  -22.8328 C   0  0  2  0  0  0  0  0  0  0  0  0
   -8.4148   -3.7111  -24.1658 C   0  0  0  0  0  0  0  0  0  0  0  0
   -8.3915   -3.0139  -25.0104 H   0  0  0  0  0  0  0  0  0  0  0  0
   -7.5237   -4.3457  -24.2243 H   0  0  0  0  0  0  0  0  0  0  0  0
   -9.2955   -4.3511  -24.2817 H   0  0  0  0  0  0  0  0  0  0  0  0
   -8.4289   -3.7235  -22.0338 H   0  0  0  0  0  0  0  0  0  0  0  0
   -6.9397   -1.5196  -23.4329 H   0  0  0  0  0  0  0  0  0  0  0  0
   -6.3554   -2.6768  -22.2136 H   0  0  0  0  0  0  0  0  0  0  0  0
  -11.0401   -2.7248  -22.1139 C   0  0  0  0  0  0  0  0  0  0  0  0
  -11.0168   -3.7750  -21.4010 C   0  0  0  0  0  0  0  0  0  0  0  0
  -13.4443   -3.6750  -21.4088 C   0  0  0  0  0  0  0  0  0  0  0  0
  -11.7075   -5.0205  -19.6705 F   0  0  0  0  0  0  0  0  0  0  0  0
  -13.6420   -3.7993  -21.3813 C   0  0  0  0  0  0  0  0  0  0  0  0
  -13.4173   -2.3736  -21.7308 C   0  0  0  0  0  0  0  0  0  0  0  0
  -12.2048   -1.8912  -22.2653 C   0  0  0  0  0  0  0  0  0  0  0  0
  -12.2630   -0.5998  -22.8956 C   0  0  0  0  0  0  0  0  0  0  0  0
  -13.2973    0.0661  -22.8101 O   0  0  0  0  0  0  0  0  0  0  0  0
  -14.0622   -1.6851  -21.2705 H   0  0  0  0  0  0  0  0  0  0  0  0
  -14.5235   -3.5056  -20.7507 H   0  0  0  0  0  0  0  0  0  0  0  0
  -11.3363   -4.5469  -20.4944 H   0  0  0  0  0  0  0  0  0  0  0  0
   -9.1495   -0.5487  -24.0802 H   0  0  0  0  0  0  0  0  0  0  0  0
  -10.2606   -1.7904  -24.6850 H   0  0  0  0  0  0  0  0  0  0  0  0
  -10.4654    1.0426  -25.0713 H   0  0  0  0  0  0  0  0  0  0  0  0
   -9.9573    1.5273  -23.4782 H   0  0  0  0  0  0  0  0  0  0  0  0
  -13.6082    1.1270  -24.7645 H   0  0  0  0  0  0  0  0  0  0  0  0
  -15.0480    3.1676  -24.7442 H   0  0  0  0  0  0  0  0  0  0  0  0
  -10.5915    2.0781  -21.4419 H   0  0  0  0  0  0  0  0  0  0  0  0
  -11.8572    3.1183  -20.7358 H   0  0  0  0  0  0  0  0  0  0  0  0
  -12.4750    4.9739  -22.1069 H   0  0  0  0  0  0  0  0  0  0  0  0
  -11.4223    2.9832  -24.8096 H   0  0  0  0  0  0  0  0  0  0  0  0
  -12.2710    1.5916  -21.5637 H   0  0  0  0  0  0  0  0  0  0  0  0
  1  2  1  0
  2  3  1  0
  3  4  1  0
  4  5  2  0
  5  6  1  0
  6  7  2  0
  7  8  1  0
  8  9  1  0
  9 10  1  0
 11 10  1  6
 11 12  1  0
 12 13  2  0
 12 14  1  0
 14 15  1  0
 15 16  2  0
 16 17  1  0
 17 18  2  0
 18 19  1  0
 19 20  2  0
 20 21  1  0
 21 22  2  0
 22 23  1  0
 23 24  2  0
 23 25  1  0
 22 26  1  0
 21 27  1  0
 20 28  1  0
 18 29  1  0
 16 30  1  0
 14 31  1  0
 31 32  1  0
 32 33  1  0
 33 34  1  0
 33 35  1  0
 33 36  1  0
 32 37  1  1
 31 38  1  0
 31 39  1  0
 11 40  1  0
 40 41  2  0
 41 42  1  0
 42 43  1  0
 42 44  2  0
 44 45  1  0
 45 46  2  0
 46 47  1  0
 47 48  2  0
 45 49  1  0
 44 50  1  0
 41 51  1  0
 10 52  1  0
 10 53  1  0
  8 54  1  0
  8 55  1  0
  6 56  1  0
  5 57  1  0
  2 58  1  0
  2 59  1  0
  1 60  1  0
  1 61  1  0
  1 62  1  0
  7  3  1  0
 47  9  1  0
 32 11  1  0
 46 40  1  0
 24 15  1  0
 24 19  1  0
M  END
>  <cnnaffinities>  (91) 
[6.85514]

>  <score>  (91) 
6.85514

>  <index>  (91) 
93

>  <Smiles>  (91) 
C(C(n1nc(c(c1C(N1C([C@@]2(C(=O)N(c3c(nc(c4c(c(c(c(c34)[H])[H])[H])[H])[H])[H])C([C@@]2(C([H])([H])[H])[H])([H])[H])c2c(c(F)c(c(c2C1=O)[H])[H])[H])([H])[H])([H])[H])[H])[H])([H])[H])([H])([H])[H]

>  <h>  (91) 
<NA>

>  <Training>  (91) 
True

>  <Success>  (91) 
True

>  <enamine_searched>  (91) 
False

>  <enamine_id>  (91) 
nan

$$$$

     RDKit          3D

 66 71  0  0  0  0  0  0  0  0999 V2000
   -7.8312   -6.0238  -26.6753 C   0  0  0  0  0  0  0  0  0  0  0  0
   -8.0160   -4.6114  -26.9579 N   0  0  0  0  0  0  0  0  0  0  0  0
   -7.1127   -3.6949  -26.5429 C   0  0  0  0  0  0  0  0  0  0  0  0
   -6.0970   -3.9717  -25.9138 O   0  0  0  0  0  0  0  0  0  0  0  0
   -7.4969   -2.2386  -26.8119 C   0  0  0  0  0  0  0  0  0  0  0  0
   -8.4059   -1.7406  -25.7820 N   0  0  0  0  0  0  0  0  0  0  0  0
   -7.8704   -1.2934  -24.5000 C   0  0  0  0  0  0  0  0  0  0  0  0
   -8.7692   -1.5771  -23.2544 C   0  0  2  0  0  0  0  0  0  0  0  0
   -8.2502   -0.6274  -22.1539 C   0  0  0  0  0  0  0  0  0  0  0  0
   -8.4389    0.5673  -22.0685 O   0  0  0  0  0  0  0  0  0  0  0  0
   -7.4496   -1.3507  -21.2867 N   0  0  0  0  0  0  0  0  0  0  0  0
   -6.6828   -0.7718  -20.2460 C   0  0  0  0  0  0  0  0  0  0  0  0
   -6.9615   -1.1016  -18.9409 C   0  0  0  0  0  0  0  0  0  0  0  0
   -6.2786   -0.6411  -17.8667 N   0  0  0  0  0  0  0  0  0  0  0  0
   -5.2643    0.1585  -18.0939 C   0  0  0  0  0  0  0  0  0  0  0  0
   -4.8398    0.5540  -19.3928 C   0  0  0  0  0  0  0  0  0  0  0  0
   -3.7140    1.4000  -19.5780 C   0  0  0  0  0  0  0  0  0  0  0  0
   -3.3198    1.7620  -20.8363 C   0  0  0  0  0  0  0  0  0  0  0  0
   -4.0313    1.2937  -21.9625 C   0  0  0  0  0  0  0  0  0  0  0  0
   -5.1176    0.4704  -21.8086 C   0  0  0  0  0  0  0  0  0  0  0  0
   -5.5629    0.0862  -20.5112 C   0  0  0  0  0  0  0  0  0  0  0  0
   -5.6503    0.1157  -22.6853 H   0  0  0  0  0  0  0  0  0  0  0  0
   -3.7016    1.5713  -22.9594 H   0  0  0  0  0  0  0  0  0  0  0  0
   -2.4670    2.4184  -20.9832 H   0  0  0  0  0  0  0  0  0  0  0  0
   -3.1828    1.7553  -18.7008 H   0  0  0  0  0  0  0  0  0  0  0  0
   -4.7186    0.5249  -17.2264 H   0  0  0  0  0  0  0  0  0  0  0  0
   -7.7988   -1.7648  -18.7220 H   0  0  0  0  0  0  0  0  0  0  0  0
   -7.3580   -2.7623  -21.6097 C   0  0  0  0  0  0  0  0  0  0  0  0
   -8.5484   -2.9566  -22.5571 C   0  0  2  0  0  0  0  0  0  0  0  0
   -8.4448   -4.1392  -23.5192 C   0  0  0  0  0  0  0  0  0  0  0  0
   -8.3483   -5.4376  -22.8757 N   0  0  0  0  0  0  0  0  0  0  0  0
   -7.1704   -5.9540  -22.4196 C   0  0  0  0  0  0  0  0  0  0  0  0
   -5.9347   -5.6576  -23.0326 C   0  0  0  0  0  0  0  0  0  0  0  0
   -4.8227   -6.2352  -22.4501 C   0  0  0  0  0  0  0  0  0  0  0  0
   -4.8829   -7.0066  -21.3602 N   0  0  0  0  0  0  0  0  0  0  0  0
   -6.1034   -7.2372  -20.8984 C   0  0  0  0  0  0  0  0  0  0  0  0
   -7.2563   -6.7854  -21.3725 N   0  0  0  0  0  0  0  0  0  0  0  0
   -6.1654   -7.8632  -20.0120 H   0  0  0  0  0  0  0  0  0  0  0  0
   -3.8239   -6.0716  -22.8548 H   0  0  0  0  0  0  0  0  0  0  0  0
   -5.8799   -5.0109  -23.9072 H   0  0  0  0  0  0  0  0  0  0  0  0
   -9.1389   -5.6800  -22.2915 H   0  0  0  0  0  0  0  0  0  0  0  0
   -9.3453   -4.1277  -24.1465 H   0  0  0  0  0  0  0  0  0  0  0  0
   -7.5755   -4.0073  -24.1625 H   0  0  0  0  0  0  0  0  0  0  0  0
   -9.4420   -3.1136  -21.9310 H   0  0  0  0  0  0  0  0  0  0  0  0
   -7.4321   -3.3613  -20.6974 H   0  0  0  0  0  0  0  0  0  0  0  0
   -6.3891   -2.9987  -22.0844 H   0  0  0  0  0  0  0  0  0  0  0  0
  -10.2270   -1.3770  -23.6156 C   0  0  0  0  0  0  0  0  0  0  0  0
  -11.2000   -1.1957  -22.6196 C   0  0  0  0  0  0  0  0  0  0  0  0
  -12.5288   -1.0350  -22.9809 C   0  0  0  0  0  0  0  0  0  0  0  0
  -13.7641   -0.8477  -21.7753 Cl  0  0  0  0  0  0  0  0  0  0  0  0
  -12.9345   -1.0411  -24.3126 C   0  0  0  0  0  0  0  0  0  0  0  0
  -11.9875   -1.2652  -25.2892 C   0  0  0  0  0  0  0  0  0  0  0  0
  -10.6579   -1.4779  -24.9420 C   0  0  0  0  0  0  0  0  0  0  0  0
   -9.7336   -1.9079  -26.0246 C   0  0  0  0  0  0  0  0  0  0  0  0
  -10.1427   -2.4247  -27.0662 O   0  0  0  0  0  0  0  0  0  0  0  0
  -12.2563   -1.2933  -26.3381 H   0  0  0  0  0  0  0  0  0  0  0  0
  -13.9827   -0.8992  -24.5464 H   0  0  0  0  0  0  0  0  0  0  0  0
  -10.9172   -1.1708  -21.5724 H   0  0  0  0  0  0  0  0  0  0  0  0
   -7.7072   -0.2080  -24.5336 H   0  0  0  0  0  0  0  0  0  0  0  0
   -6.9001   -1.7915  -24.3746 H   0  0  0  0  0  0  0  0  0  0  0  0
   -6.5796   -1.6472  -26.8640 H   0  0  0  0  0  0  0  0  0  0  0  0
   -8.0273   -2.1774  -27.7606 H   0  0  0  0  0  0  0  0  0  0  0  0
   -8.9048   -4.2688  -27.2957 H   0  0  0  0  0  0  0  0  0  0  0  0
   -7.5925   -6.1778  -25.6150 H   0  0  0  0  0  0  0  0  0  0  0  0
   -8.7552   -6.5524  -26.9131 H   0  0  0  0  0  0  0  0  0  0  0  0
   -7.0189   -6.4445  -27.2758 H   0  0  0  0  0  0  0  0  0  0  0  0
  1  2  1  0
  2  3  1  0
  3  4  2  0
  3  5  1  0
  5  6  1  0
  6  7  1  0
  8  7  1  6
  8  9  1  0
  9 10  2  0
  9 11  1  0
 11 12  1  0
 12 13  2  0
 13 14  1  0
 14 15  2  0
 15 16  1  0
 16 17  2  0
 17 18  1  0
 18 19  2  0
 19 20  1  0
 20 21  2  0
 20 22  1  0
 19 23  1  0
 18 24  1  0
 17 25  1  0
 15 26  1  0
 13 27  1  0
 11 28  1  0
 28 29  1  0
 29 30  1  0
 30 31  1  0
 31 32  1  0
 32 33  2  0
 33 34  1  0
 34 35  2  0
 35 36  1  0
 36 37  2  0
 36 38  1  0
 34 39  1  0
 33 40  1  0
 31 41  1  0
 30 42  1  0
 30 43  1  0
 29 44  1  1
 28 45  1  0
 28 46  1  0
  8 47  1  0
 47 48  2  0
 48 49  1  0
 49 50  1  0
 49 51  2  0
 51 52  1  0
 52 53  2  0
 53 54  1  0
 54 55  2  0
 52 56  1  0
 51 57  1  0
 48 58  1  0
  7 59  1  0
  7 60  1  0
  5 61  1  0
  5 62  1  0
  2 63  1  0
  1 64  1  0
  1 65  1  0
  1 66  1  0
 54  6  1  0
 29  8  1  0
 37 32  1  0
 53 47  1  0
 21 12  1  0
 21 16  1  0
M  END
>  <cnnaffinities>  (92) 
[6.18727]

>  <score>  (92) 
6.18727

>  <index>  (92) 
95

>  <Smiles>  (92) 
C(N(C(=O)C(N1C([C@@]2(C(=O)N(c3c(nc(c4c(c(c(c(c34)[H])[H])[H])[H])[H])[H])C([C@@]2(C(N(c2c(c(nc(n2)[H])[H])[H])[H])([H])[H])[H])([H])[H])c2c(c(Cl)c(c(c2C1=O)[H])[H])[H])([H])[H])([H])[H])[H])([H])([H])[H]

>  <h>  (92) 
<NA>

>  <Training>  (92) 
True

>  <Success>  (92) 
True

>  <enamine_searched>  (92) 
False

>  <enamine_id>  (92) 
nan

$$$$

     RDKit          3D

 66 70  0  0  0  0  0  0  0  0999 V2000
   -7.3981    3.3721  -21.7905 C   0  0  0  0  0  0  0  0  0  0  0  0
   -8.3411    2.9371  -22.8037 N   0  0  0  0  0  0  0  0  0  0  0  0
   -7.8212    2.2340  -23.8472 C   0  0  0  0  0  0  0  0  0  0  0  0
   -6.6120    2.0731  -23.9760 O   0  0  0  0  0  0  0  0  0  0  0  0
   -8.8097    1.6481  -24.8484 C   0  0  0  0  0  0  0  0  0  0  0  0
   -9.4592    0.4690  -24.3171 N   0  0  0  0  0  0  0  0  0  0  0  0
   -8.6951   -0.7551  -24.1575 C   0  0  0  0  0  0  0  0  0  0  0  0
   -9.0645   -1.5151  -22.8628 C   0  0  2  0  0  0  0  0  0  0  0  0
   -8.5475   -0.7486  -21.6258 C   0  0  0  0  0  0  0  0  0  0  0  0
   -9.0248    0.2413  -21.1150 O   0  0  0  0  0  0  0  0  0  0  0  0
   -7.4097   -1.3804  -21.1790 N   0  0  0  0  0  0  0  0  0  0  0  0
   -6.6112   -0.8057  -20.1650 C   0  0  0  0  0  0  0  0  0  0  0  0
   -6.9226   -1.0470  -18.8538 C   0  0  0  0  0  0  0  0  0  0  0  0
   -6.2181   -0.5659  -17.8026 N   0  0  0  0  0  0  0  0  0  0  0  0
   -5.1859    0.1983  -18.0687 C   0  0  0  0  0  0  0  0  0  0  0  0
   -4.7552    0.5302  -19.3847 C   0  0  0  0  0  0  0  0  0  0  0  0
   -3.6331    1.3653  -19.6269 C   0  0  0  0  0  0  0  0  0  0  0  0
   -3.2644    1.6847  -20.9040 C   0  0  0  0  0  0  0  0  0  0  0  0
   -4.0047    1.1935  -22.0037 C   0  0  0  0  0  0  0  0  0  0  0  0
   -5.0791    0.3619  -21.7997 C   0  0  0  0  0  0  0  0  0  0  0  0
   -5.4844    0.0102  -20.4823 C   0  0  0  0  0  0  0  0  0  0  0  0
   -5.6364   -0.0022  -22.6584 H   0  0  0  0  0  0  0  0  0  0  0  0
   -3.7085    1.4537  -23.0151 H   0  0  0  0  0  0  0  0  0  0  0  0
   -2.3997    2.3162  -21.0861 H   0  0  0  0  0  0  0  0  0  0  0  0
   -3.0873    1.7546  -18.7718 H   0  0  0  0  0  0  0  0  0  0  0  0
   -4.6178    0.5886  -17.2222 H   0  0  0  0  0  0  0  0  0  0  0  0
   -7.7887   -1.6604  -18.6163 H   0  0  0  0  0  0  0  0  0  0  0  0
   -7.0362   -2.5522  -21.9374 C   0  0  0  0  0  0  0  0  0  0  0  0
   -8.2956   -2.8649  -22.7519 C   0  0  2  0  0  0  0  0  0  0  0  0
   -7.9549   -3.6016  -24.0489 C   0  0  0  0  0  0  0  0  0  0  0  0
   -9.1041   -3.9737  -24.7703 O   0  0  0  0  0  0  0  0  0  0  0  0
   -9.6084   -5.2822  -24.5023 C   0  0  0  0  0  0  0  0  0  0  0  0
  -11.0956   -5.2037  -24.7702 C   0  0  0  0  0  0  0  0  0  0  0  0
  -11.6386   -6.0919  -24.4520 H   0  0  0  0  0  0  0  0  0  0  0  0
  -11.5307   -4.3236  -24.2876 H   0  0  0  0  0  0  0  0  0  0  0  0
  -11.2102   -5.1585  -25.8581 H   0  0  0  0  0  0  0  0  0  0  0  0
   -8.9873   -6.2967  -25.4606 C   0  0  0  0  0  0  0  0  0  0  0  0
   -9.4488   -7.2810  -25.3204 H   0  0  0  0  0  0  0  0  0  0  0  0
   -7.9049   -6.4147  -25.3481 H   0  0  0  0  0  0  0  0  0  0  0  0
   -9.1935   -5.9571  -26.4825 H   0  0  0  0  0  0  0  0  0  0  0  0
   -9.3995   -5.5557  -23.4542 H   0  0  0  0  0  0  0  0  0  0  0  0
   -7.3358   -4.4859  -23.8241 H   0  0  0  0  0  0  0  0  0  0  0  0
   -7.3688   -2.9516  -24.7122 H   0  0  0  0  0  0  0  0  0  0  0  0
   -8.9288   -3.5299  -22.1606 H   0  0  0  0  0  0  0  0  0  0  0  0
   -6.1729   -2.3580  -22.5937 H   0  0  0  0  0  0  0  0  0  0  0  0
   -6.7613   -3.3715  -21.2665 H   0  0  0  0  0  0  0  0  0  0  0  0
  -10.5730   -1.6195  -22.8106 C   0  0  0  0  0  0  0  0  0  0  0  0
  -11.1939   -2.5418  -21.9659 C   0  0  0  0  0  0  0  0  0  0  0  0
  -12.5732   -2.5679  -21.8684 C   0  0  0  0  0  0  0  0  0  0  0  0
  -13.3179   -3.6536  -20.7355 Cl  0  0  0  0  0  0  0  0  0  0  0  0
  -13.3922   -1.7207  -22.6162 C   0  0  0  0  0  0  0  0  0  0  0  0
  -12.7807   -0.7767  -23.4110 C   0  0  0  0  0  0  0  0  0  0  0  0
  -11.3928   -0.6941  -23.4708 C   0  0  0  0  0  0  0  0  0  0  0  0
  -10.8152    0.4900  -24.1715 C   0  0  0  0  0  0  0  0  0  0  0  0
  -11.5019    1.4277  -24.5510 O   0  0  0  0  0  0  0  0  0  0  0  0
  -13.3543   -0.0499  -23.9718 H   0  0  0  0  0  0  0  0  0  0  0  0
  -14.4721   -1.7824  -22.5232 H   0  0  0  0  0  0  0  0  0  0  0  0
  -10.6075   -3.2066  -21.3407 H   0  0  0  0  0  0  0  0  0  0  0  0
   -8.8864   -1.4238  -25.0035 H   0  0  0  0  0  0  0  0  0  0  0  0
   -7.6317   -0.5028  -24.1603 H   0  0  0  0  0  0  0  0  0  0  0  0
   -9.6036    2.3544  -25.1160 H   0  0  0  0  0  0  0  0  0  0  0  0
   -8.2239    1.3950  -25.7347 H   0  0  0  0  0  0  0  0  0  0  0  0
   -9.2935    2.7904  -22.4962 H   0  0  0  0  0  0  0  0  0  0  0  0
   -6.7705    2.5321  -21.4740 H   0  0  0  0  0  0  0  0  0  0  0  0
   -6.7449    4.1514  -22.1821 H   0  0  0  0  0  0  0  0  0  0  0  0
   -7.9283    3.7853  -20.9356 H   0  0  0  0  0  0  0  0  0  0  0  0
  1  2  1  0
  2  3  1  0
  3  4  2  0
  3  5  1  0
  5  6  1  0
  6  7  1  0
  8  7  1  6
  8  9  1  0
  9 10  2  0
  9 11  1  0
 11 12  1  0
 12 13  2  0
 13 14  1  0
 14 15  2  0
 15 16  1  0
 16 17  2  0
 17 18  1  0
 18 19  2  0
 19 20  1  0
 20 21  2  0
 20 22  1  0
 19 23  1  0
 18 24  1  0
 17 25  1  0
 15 26  1  0
 13 27  1  0
 11 28  1  0
 28 29  1  0
 29 30  1  0
 30 31  1  0
 31 32  1  0
 32 33  1  0
 33 34  1  0
 33 35  1  0
 33 36  1  0
 32 37  1  0
 37 38  1  0
 37 39  1  0
 37 40  1  0
 32 41  1  0
 30 42  1  0
 30 43  1  0
 29 44  1  1
 28 45  1  0
 28 46  1  0
  8 47  1  0
 47 48  2  0
 48 49  1  0
 49 50  1  0
 49 51  2  0
 51 52  1  0
 52 53  2  0
 53 54  1  0
 54 55  2  0
 52 56  1  0
 51 57  1  0
 48 58  1  0
  7 59  1  0
  7 60  1  0
  5 61  1  0
  5 62  1  0
  2 63  1  0
  1 64  1  0
  1 65  1  0
  1 66  1  0
 54  6  1  0
 29  8  1  0
 53 47  1  0
 21 12  1  0
 21 16  1  0
M  END
>  <cnnaffinities>  (93) 
[6.06477, 6.43268, 6.28475, 6.07881, 5.94365, 6.27735, 6.9435, 5.79505, 6.11808]

>  <score>  (93) 
6.06477

>  <index>  (93) 
96

>  <Smiles>  (93) 
C(N(C(=O)C(N1C([C@@]2(C(=O)N(c3c(nc(c4c(c(c(c(c34)[H])[H])[H])[H])[H])[H])C([C@@]2(C(OC(C([H])([H])[H])(C([H])([H])[H])[H])([H])[H])[H])([H])[H])c2c(c(Cl)c(c(c2C1=O)[H])[H])[H])([H])[H])([H])[H])[H])([H])([H])[H]

>  <h>  (93) 
<NA>

>  <Training>  (93) 
True

>  <Success>  (93) 
True

>  <enamine_searched>  (93) 
False

>  <enamine_id>  (93) 
nan

$$$$

     RDKit          3D

 40 43  0  0  0  0  0  0  0  0999 V2000
  -12.5576   -1.4491  -23.7771 C   0  0  0  0  0  0  0  0  0  0  0  0
  -11.1654   -0.8776  -23.5450 C   0  0  2  0  0  0  0  0  0  0  0  0
  -10.7054   -0.0515  -24.7405 C   0  0  0  0  0  0  0  0  0  0  0  0
   -9.4102    0.4695  -24.5565 O   0  0  0  0  0  0  0  0  0  0  0  0
   -8.4555   -0.5558  -24.4621 C   0  0  0  0  0  0  0  0  0  0  0  0
   -8.7007   -1.4528  -23.2355 C   0  0  1  0  0  0  0  0  0  0  0  0
  -10.1450   -1.9769  -23.2675 C   0  0  0  0  0  0  0  0  0  0  0  0
  -10.3611   -2.4730  -22.3159 H   0  0  0  0  0  0  0  0  0  0  0  0
  -10.2151   -2.7529  -24.0444 H   0  0  0  0  0  0  0  0  0  0  0  0
   -7.7348   -2.5215  -23.1553 N   0  0  0  0  0  0  0  0  0  0  0  0
   -6.9422   -2.5240  -22.0379 C   0  0  0  0  0  0  0  0  0  0  0  0
   -6.0462   -3.2843  -21.7540 O   0  0  0  0  0  0  0  0  0  0  0  0
   -7.3760   -1.4196  -21.2647 N   0  0  0  0  0  0  0  0  0  0  0  0
   -6.5896   -0.8431  -20.2062 C   0  0  0  0  0  0  0  0  0  0  0  0
   -6.8936   -1.0552  -18.8835 C   0  0  0  0  0  0  0  0  0  0  0  0
   -6.1958   -0.5482  -17.8274 N   0  0  0  0  0  0  0  0  0  0  0  0
   -5.1595    0.2188  -18.0705 C   0  0  0  0  0  0  0  0  0  0  0  0
   -4.7250    0.5320  -19.3899 C   0  0  0  0  0  0  0  0  0  0  0  0
   -3.5963    1.3662  -19.6269 C   0  0  0  0  0  0  0  0  0  0  0  0
   -3.2162    1.6566  -20.9106 C   0  0  0  0  0  0  0  0  0  0  0  0
   -3.9503    1.1401  -21.9987 C   0  0  0  0  0  0  0  0  0  0  0  0
   -5.0274    0.3169  -21.7929 C   0  0  0  0  0  0  0  0  0  0  0  0
   -5.4535   -0.0062  -20.4787 C   0  0  0  0  0  0  0  0  0  0  0  0
   -5.5694   -0.0915  -22.6380 H   0  0  0  0  0  0  0  0  0  0  0  0
   -3.6259    1.3519  -23.0127 H   0  0  0  0  0  0  0  0  0  0  0  0
   -2.3540    2.2872  -21.1055 H   0  0  0  0  0  0  0  0  0  0  0  0
   -3.0499    1.7797  -18.7821 H   0  0  0  0  0  0  0  0  0  0  0  0
   -4.6025    0.6265  -17.2190 H   0  0  0  0  0  0  0  0  0  0  0  0
   -7.7413   -1.6764  -18.6089 H   0  0  0  0  0  0  0  0  0  0  0  0
   -8.3864   -0.7051  -21.9377 C   0  0  0  0  0  0  0  0  0  0  0  0
   -8.8828    0.3150  -21.5363 O   0  0  0  0  0  0  0  0  0  0  0  0
   -7.6171   -3.2118  -23.8767 H   0  0  0  0  0  0  0  0  0  0  0  0
   -7.4705   -0.0866  -24.3803 H   0  0  0  0  0  0  0  0  0  0  0  0
   -8.4650   -1.1635  -25.3825 H   0  0  0  0  0  0  0  0  0  0  0  0
  -10.7236   -0.6578  -25.6628 H   0  0  0  0  0  0  0  0  0  0  0  0
  -11.3669    0.8066  -24.8910 H   0  0  0  0  0  0  0  0  0  0  0  0
  -11.1941   -0.2078  -22.6802 H   0  0  0  0  0  0  0  0  0  0  0  0
  -12.8898   -2.0303  -22.9118 H   0  0  0  0  0  0  0  0  0  0  0  0
  -13.2885   -0.6521  -23.9467 H   0  0  0  0  0  0  0  0  0  0  0  0
  -12.5722   -2.1102  -24.6507 H   0  0  0  0  0  0  0  0  0  0  0  0
  1  2  1  0
  2  3  1  0
  3  4  1  0
  4  5  1  0
  5  6  1  0
  6  7  1  0
  7  8  1  0
  7  9  1  0
  6 10  1  6
 10 11  1  0
 11 12  2  0
 11 13  1  0
 13 14  1  0
 14 15  2  0
 15 16  1  0
 16 17  2  0
 17 18  1  0
 18 19  2  0
 19 20  1  0
 20 21  2  0
 21 22  1  0
 22 23  2  0
 22 24  1  0
 21 25  1  0
 20 26  1  0
 19 27  1  0
 17 28  1  0
 15 29  1  0
 13 30  1  0
 30 31  2  0
 10 32  1  0
  5 33  1  0
  5 34  1  0
  3 35  1  0
  3 36  1  0
  2 37  1  1
  1 38  1  0
  1 39  1  0
  1 40  1  0
  7  2  1  0
 23 14  1  0
 30  6  1  0
 23 18  1  0
M  END
>  <cnnaffinities>  (94) 
[4.76134]

>  <score>  (94) 
4.76134

>  <index>  (94) 
97

>  <Smiles>  (94) 
C([C@@]1(C(OC([C@@]2(C1([H])[H])N(C(=O)N(c1c(nc(c3c(c(c(c(c13)[H])[H])[H])[H])[H])[H])C2=O)[H])([H])[H])([H])[H])[H])([H])([H])[H]

>  <h>  (94) 
<NA>

>  <Training>  (94) 
True

>  <Success>  (94) 
True

>  <enamine_searched>  (94) 
False

>  <enamine_id>  (94) 
nan

$$$$
