
     RDKit          3D

 66 71  0  0  0  0  0  0  0  0999 V2000
   -6.9932    3.0697  -22.1262 C   0  0  0  0  0  0  0  0  0  0  0  0
   -7.5206    2.4515  -23.3261 N   0  0  0  0  0  0  0  0  0  0  0  0
   -6.6739    1.7884  -24.1476 C   0  0  0  0  0  0  0  0  0  0  0  0
   -5.4571    1.8688  -24.0546 O   0  0  0  0  0  0  0  0  0  0  0  0
   -7.3509    0.8837  -25.1839 C   0  0  0  0  0  0  0  0  0  0  0  0
   -8.0825   -0.1819  -24.5209 N   0  0  0  0  0  0  0  0  0  0  0  0
   -7.4036   -1.4061  -24.1465 C   0  0  0  0  0  0  0  0  0  0  0  0
   -7.9864   -2.0762  -22.8581 C   0  0  2  0  0  0  0  0  0  0  0  0
   -7.5954   -1.2821  -21.6010 C   0  0  0  0  0  0  0  0  0  0  0  0
   -8.1593   -0.3111  -21.1419 O   0  0  0  0  0  0  0  0  0  0  0  0
   -6.4784   -1.8682  -21.0534 N   0  0  0  0  0  0  0  0  0  0  0  0
   -5.8319   -1.2010  -19.9877 C   0  0  0  0  0  0  0  0  0  0  0  0
   -6.1475   -1.5190  -18.6941 C   0  0  0  0  0  0  0  0  0  0  0  0
   -5.6279   -0.8956  -17.6109 N   0  0  0  0  0  0  0  0  0  0  0  0
   -4.7878    0.0905  -17.8265 C   0  0  0  0  0  0  0  0  0  0  0  0
   -4.3732    0.5213  -19.1194 C   0  0  0  0  0  0  0  0  0  0  0  0
   -3.4393    1.5751  -19.3125 C   0  0  0  0  0  0  0  0  0  0  0  0
   -3.0382    1.9246  -20.5746 C   0  0  0  0  0  0  0  0  0  0  0  0
   -3.5754    1.2695  -21.7063 C   0  0  0  0  0  0  0  0  0  0  0  0
   -4.5078    0.2746  -21.5448 C   0  0  0  0  0  0  0  0  0  0  0  0
   -4.9137   -0.1405  -20.2455 C   0  0  0  0  0  0  0  0  0  0  0  0
   -4.9586   -0.1879  -22.4182 H   0  0  0  0  0  0  0  0  0  0  0  0
   -3.2681    1.5623  -22.7061 H   0  0  0  0  0  0  0  0  0  0  0  0
   -2.3046    2.7138  -20.7165 H   0  0  0  0  0  0  0  0  0  0  0  0
   -3.0601    2.0952  -18.4365 H   0  0  0  0  0  0  0  0  0  0  0  0
   -4.3868    0.6000  -16.9506 H   0  0  0  0  0  0  0  0  0  0  0  0
   -6.8647   -2.3147  -18.4999 H   0  0  0  0  0  0  0  0  0  0  0  0
   -5.9864   -3.0101  -21.8132 C   0  0  0  0  0  0  0  0  0  0  0  0
   -7.2473   -3.4223  -22.6020 C   0  0  2  0  0  0  0  0  0  0  0  0
   -7.0022   -4.2923  -23.8420 C   0  0  0  0  0  0  0  0  0  0  0  0
   -8.2703   -4.5418  -24.5005 N   0  0  0  0  0  0  0  0  0  0  0  0
   -8.4436   -4.9068  -25.7941 C   0  0  0  0  0  0  0  0  0  0  0  0
   -9.7361   -4.8789  -26.3535 C   0  0  0  0  0  0  0  0  0  0  0  0
   -9.8428   -5.2684  -27.6692 C   0  0  0  0  0  0  0  0  0  0  0  0
   -8.7944   -5.6576  -28.4113 N   0  0  0  0  0  0  0  0  0  0  0  0
   -7.6345   -5.6419  -27.7729 C   0  0  0  0  0  0  0  0  0  0  0  0
   -7.3785   -5.2824  -26.5141 N   0  0  0  0  0  0  0  0  0  0  0  0
   -6.7706   -5.9574  -28.3526 H   0  0  0  0  0  0  0  0  0  0  0  0
  -10.8121   -5.2721  -28.1613 H   0  0  0  0  0  0  0  0  0  0  0  0
  -10.5917   -4.5494  -25.7639 H   0  0  0  0  0  0  0  0  0  0  0  0
   -9.0983   -4.2202  -24.0252 H   0  0  0  0  0  0  0  0  0  0  0  0
   -6.5281   -5.2427  -23.5750 H   0  0  0  0  0  0  0  0  0  0  0  0
   -6.3097   -3.8025  -24.5378 H   0  0  0  0  0  0  0  0  0  0  0  0
   -7.8692   -4.0015  -21.9083 H   0  0  0  0  0  0  0  0  0  0  0  0
   -5.6240   -3.7969  -21.1454 H   0  0  0  0  0  0  0  0  0  0  0  0
   -5.1530   -2.7177  -22.4764 H   0  0  0  0  0  0  0  0  0  0  0  0
   -9.4973   -2.1150  -22.9428 C   0  0  0  0  0  0  0  0  0  0  0  0
  -10.3113   -2.8408  -22.0572 C   0  0  0  0  0  0  0  0  0  0  0  0
  -11.6921   -2.7558  -22.1873 C   0  0  0  0  0  0  0  0  0  0  0  0
  -12.7759   -3.3979  -20.9963 Cl  0  0  0  0  0  0  0  0  0  0  0  0
  -12.2937   -2.0393  -23.2146 C   0  0  0  0  0  0  0  0  0  0  0  0
  -11.4970   -1.2230  -23.9926 C   0  0  0  0  0  0  0  0  0  0  0  0
  -10.1326   -1.1768  -23.7617 C   0  0  0  0  0  0  0  0  0  0  0  0
   -9.3833    0.0249  -24.2252 C   0  0  0  0  0  0  0  0  0  0  0  0
   -9.9007    1.1421  -24.3177 O   0  0  0  0  0  0  0  0  0  0  0  0
  -11.9021   -0.4933  -24.6881 H   0  0  0  0  0  0  0  0  0  0  0  0
  -13.3784   -2.0324  -23.2809 H   0  0  0  0  0  0  0  0  0  0  0  0
   -9.9120   -3.3981  -21.2192 H   0  0  0  0  0  0  0  0  0  0  0  0
   -7.4737   -2.1001  -24.9886 H   0  0  0  0  0  0  0  0  0  0  0  0
   -6.3417   -1.1942  -23.9928 H   0  0  0  0  0  0  0  0  0  0  0  0
   -6.5790    0.4730  -25.8386 H   0  0  0  0  0  0  0  0  0  0  0  0
   -8.0681    1.4499  -25.7893 H   0  0  0  0  0  0  0  0  0  0  0  0
   -8.5195    2.3323  -23.4544 H   0  0  0  0  0  0  0  0  0  0  0  0
   -7.7691    3.6752  -21.6481 H   0  0  0  0  0  0  0  0  0  0  0  0
   -6.1537    3.7127  -22.4039 H   0  0  0  0  0  0  0  0  0  0  0  0
   -6.6265    2.3058  -21.4212 H   0  0  0  0  0  0  0  0  0  0  0  0
  1  2  1  0
  2  3  1  0
  3  4  2  0
  3  5  1  0
  5  6  1  0
  6  7  1  0
  8  7  1  6
  8  9  1  0
  9 10  2  0
  9 11  1  0
 11 12  1  0
 12 13  2  0
 13 14  1  0
 14 15  2  0
 15 16  1  0
 16 17  2  0
 17 18  1  0
 18 19  2  0
 19 20  1  0
 20 21  2  0
 20 22  1  0
 19 23  1  0
 18 24  1  0
 17 25  1  0
 15 26  1  0
 13 27  1  0
 11 28  1  0
 28 29  1  0
 29 30  1  0
 30 31  1  0
 31 32  1  0
 32 33  2  0
 33 34  1  0
 34 35  2  0
 35 36  1  0
 36 37  2  0
 36 38  1  0
 34 39  1  0
 33 40  1  0
 31 41  1  0
 30 42  1  0
 30 43  1  0
 29 44  1  1
 28 45  1  0
 28 46  1  0
  8 47  1  0
 47 48  2  0
 48 49  1  0
 49 50  1  0
 49 51  2  0
 51 52  1  0
 52 53  2  0
 53 54  1  0
 54 55  2  0
 52 56  1  0
 51 57  1  0
 48 58  1  0
  7 59  1  0
  7 60  1  0
  5 61  1  0
  5 62  1  0
  2 63  1  0
  1 64  1  0
  1 65  1  0
  1 66  1  0
 54  6  1  0
 29  8  1  0
 37 32  1  0
 53 47  1  0
 21 12  1  0
 21 16  1  0
M  END
>  <cnnaffinities>  (1) 
[6.84705]

>  <score>  (1) 
6.84705

>  <index>  (1) 
0

>  <Smiles>  (1) 
C(N(C(=O)C(N1C([C@@]2(C(=O)N(c3c(nc(c4c(c(c(c(c34)[H])[H])[H])[H])[H])[H])C([C@@]2(C(N(c2c(c(nc(n2)[H])[H])[H])[H])([H])[H])[H])([H])[H])c2c(c(Cl)c(c(c2C1=O)[H])[H])[H])([H])[H])([H])[H])[H])([H])([H])[H]

>  <h>  (1) 
<NA>

>  <Training>  (1) 
True

>  <Success>  (1) 
True

>  <enamine_searched>  (1) 
False

>  <enamine_id>  (1) 
nan

$$$$

     RDKit          3D

 68 73  0  0  0  0  0  0  0  0999 V2000
   -6.9321    3.4039  -22.0838 C   0  0  0  0  0  0  0  0  0  0  0  0
   -7.5961    2.8570  -23.2544 N   0  0  0  0  0  0  0  0  0  0  0  0
   -6.8403    2.2136  -24.1781 C   0  0  0  0  0  0  0  0  0  0  0  0
   -5.6192    2.2739  -24.1918 O   0  0  0  0  0  0  0  0  0  0  0  0
   -7.6055    1.3507  -25.1891 C   0  0  0  0  0  0  0  0  0  0  0  0
   -8.3244    0.2636  -24.5429 N   0  0  0  0  0  0  0  0  0  0  0  0
   -7.6231   -0.9717  -24.2393 C   0  0  0  0  0  0  0  0  0  0  0  0
   -8.1351   -1.6770  -22.9443 C   0  0  2  0  0  0  0  0  0  0  0  0
   -7.6625   -0.9350  -21.6891 C   0  0  0  0  0  0  0  0  0  0  0  0
   -8.0466    0.1508  -21.2958 O   0  0  0  0  0  0  0  0  0  0  0  0
   -6.7114   -1.7040  -21.0537 N   0  0  0  0  0  0  0  0  0  0  0  0
   -6.0312   -1.0725  -19.9824 C   0  0  0  0  0  0  0  0  0  0  0  0
   -6.4263   -1.2701  -18.6841 C   0  0  0  0  0  0  0  0  0  0  0  0
   -5.8823   -0.6226  -17.6238 N   0  0  0  0  0  0  0  0  0  0  0  0
   -4.9306    0.2504  -17.8689 C   0  0  0  0  0  0  0  0  0  0  0  0
   -4.4342    0.5491  -19.1707 C   0  0  0  0  0  0  0  0  0  0  0  0
   -3.3921    1.4862  -19.4047 C   0  0  0  0  0  0  0  0  0  0  0  0
   -3.0310    1.8324  -20.6794 C   0  0  0  0  0  0  0  0  0  0  0  0
   -3.7056    1.2677  -21.7848 C   0  0  0  0  0  0  0  0  0  0  0  0
   -4.6819    0.3241  -21.5871 C   0  0  0  0  0  0  0  0  0  0  0  0
   -5.0487   -0.0827  -20.2705 C   0  0  0  0  0  0  0  0  0  0  0  0
   -5.2078   -0.0910  -22.4431 H   0  0  0  0  0  0  0  0  0  0  0  0
   -3.4785    1.6018  -22.7915 H   0  0  0  0  0  0  0  0  0  0  0  0
   -2.2358    2.5546  -20.8478 H   0  0  0  0  0  0  0  0  0  0  0  0
   -2.8877    1.9135  -18.5445 H   0  0  0  0  0  0  0  0  0  0  0  0
   -4.5188    0.7947  -17.0179 H   0  0  0  0  0  0  0  0  0  0  0  0
   -7.2320   -1.9708  -18.4614 H   0  0  0  0  0  0  0  0  0  0  0  0
   -6.2571   -2.8213  -21.8876 C   0  0  0  0  0  0  0  0  0  0  0  0
   -7.5099   -3.0823  -22.7412 C   0  0  2  0  0  0  0  0  0  0  0  0
   -7.3485   -3.8947  -24.0344 C   0  0  0  0  0  0  0  0  0  0  0  0
   -7.0190   -5.3004  -23.8714 N   0  0  0  0  0  0  0  0  0  0  0  0
   -5.6892   -5.6355  -23.6148 C   0  0  0  0  0  0  0  0  0  0  0  0
   -5.1361   -6.7901  -22.9966 C   0  0  0  0  0  0  0  0  0  0  0  0
   -3.8070   -6.7319  -22.9608 N   0  0  0  0  0  0  0  0  0  0  0  0
   -3.4873   -5.5834  -23.5652 N   0  0  0  0  0  0  0  0  0  0  0  0
   -2.1203   -5.1215  -23.6089 C   0  0  0  0  0  0  0  0  0  0  0  0
   -1.7291   -5.0193  -22.5923 H   0  0  0  0  0  0  0  0  0  0  0  0
   -2.0977   -4.1457  -24.1036 H   0  0  0  0  0  0  0  0  0  0  0  0
   -1.4970   -5.8203  -24.1720 H   0  0  0  0  0  0  0  0  0  0  0  0
   -4.5841   -4.8989  -23.9786 C   0  0  0  0  0  0  0  0  0  0  0  0
   -4.5034   -3.9532  -24.5039 H   0  0  0  0  0  0  0  0  0  0  0  0
   -5.6370   -7.6534  -22.5681 H   0  0  0  0  0  0  0  0  0  0  0  0
   -7.7107   -5.8624  -23.3928 H   0  0  0  0  0  0  0  0  0  0  0  0
   -6.5740   -3.4285  -24.6515 H   0  0  0  0  0  0  0  0  0  0  0  0
   -8.2803   -3.8265  -24.6113 H   0  0  0  0  0  0  0  0  0  0  0  0
   -8.2170   -3.6345  -22.1200 H   0  0  0  0  0  0  0  0  0  0  0  0
   -5.4195   -2.5282  -22.5442 H   0  0  0  0  0  0  0  0  0  0  0  0
   -5.9303   -3.6764  -21.2893 H   0  0  0  0  0  0  0  0  0  0  0  0
   -9.6291   -1.6953  -22.9373 C   0  0  0  0  0  0  0  0  0  0  0  0
  -10.3304   -2.4718  -22.0081 C   0  0  0  0  0  0  0  0  0  0  0  0
  -11.6969   -2.5811  -22.1590 C   0  0  0  0  0  0  0  0  0  0  0  0
  -12.6766   -3.4165  -21.0050 Cl  0  0  0  0  0  0  0  0  0  0  0  0
  -12.3430   -1.9838  -23.2337 C   0  0  0  0  0  0  0  0  0  0  0  0
  -11.6571   -1.0677  -24.0245 C   0  0  0  0  0  0  0  0  0  0  0  0
  -10.3220   -0.8200  -23.7667 C   0  0  0  0  0  0  0  0  0  0  0  0
   -9.6357    0.4338  -24.2338 C   0  0  0  0  0  0  0  0  0  0  0  0
  -10.1720    1.5358  -24.2683 O   0  0  0  0  0  0  0  0  0  0  0  0
  -12.1401   -0.4305  -24.7609 H   0  0  0  0  0  0  0  0  0  0  0  0
  -13.4018   -2.1894  -23.3537 H   0  0  0  0  0  0  0  0  0  0  0  0
   -9.8403   -2.9459  -21.1646 H   0  0  0  0  0  0  0  0  0  0  0  0
   -6.5689   -0.7147  -24.1203 H   0  0  0  0  0  0  0  0  0  0  0  0
   -7.7212   -1.6373  -25.1053 H   0  0  0  0  0  0  0  0  0  0  0  0
   -8.3463    1.9424  -25.7367 H   0  0  0  0  0  0  0  0  0  0  0  0
   -6.8649    0.9578  -25.8909 H   0  0  0  0  0  0  0  0  0  0  0  0
   -8.5951    2.6794  -23.2153 H   0  0  0  0  0  0  0  0  0  0  0  0
   -6.1068    4.0507  -22.3976 H   0  0  0  0  0  0  0  0  0  0  0  0
   -7.6345    4.0025  -21.4961 H   0  0  0  0  0  0  0  0  0  0  0  0
   -6.5175    2.5862  -21.4730 H   0  0  0  0  0  0  0  0  0  0  0  0
  1  2  1  0
  2  3  1  0
  3  4  2  0
  3  5  1  0
  5  6  1  0
  6  7  1  0
  8  7  1  6
  8  9  1  0
  9 10  2  0
  9 11  1  0
 11 12  1  0
 12 13  2  0
 13 14  1  0
 14 15  2  0
 15 16  1  0
 16 17  2  0
 17 18  1  0
 18 19  2  0
 19 20  1  0
 20 21  2  0
 20 22  1  0
 19 23  1  0
 18 24  1  0
 17 25  1  0
 15 26  1  0
 13 27  1  0
 11 28  1  0
 28 29  1  0
 29 30  1  0
 30 31  1  0
 31 32  1  0
 32 33  1  0
 33 34  2  0
 34 35  1  0
 35 36  1  0
 36 37  1  0
 36 38  1  0
 36 39  1  0
 35 40  1  0
 40 41  1  0
 33 42  1  0
 31 43  1  0
 30 44  1  0
 30 45  1  0
 29 46  1  1
 28 47  1  0
 28 48  1  0
  8 49  1  0
 49 50  2  0
 50 51  1  0
 51 52  1  0
 51 53  2  0
 53 54  1  0
 54 55  2  0
 55 56  1  0
 56 57  2  0
 54 58  1  0
 53 59  1  0
 50 60  1  0
  7 61  1  0
  7 62  1  0
  5 63  1  0
  5 64  1  0
  2 65  1  0
  1 66  1  0
  1 67  1  0
  1 68  1  0
 56  6  1  0
 29  8  1  0
 40 32  2  0
 55 49  1  0
 21 12  1  0
 21 16  1  0
M  END
>  <cnnaffinities>  (2) 
[6.92811, 6.62108]

>  <score>  (2) 
6.92811

>  <index>  (2) 
1

>  <Smiles>  (2) 
C(N(C(=O)C(N1C([C@@]2(C(=O)N(c3c(nc(c4c(c(c(c(c34)[H])[H])[H])[H])[H])[H])C([C@@]2(C(N(c2c(nn(C([H])([H])[H])c2[H])[H])[H])([H])[H])[H])([H])[H])c2c(c(Cl)c(c(c2C1=O)[H])[H])[H])([H])[H])([H])[H])[H])([H])([H])[H]

>  <h>  (2) 
<NA>

>  <Training>  (2) 
True

>  <Success>  (2) 
True

>  <enamine_searched>  (2) 
False

>  <enamine_id>  (2) 
nan

$$$$

     RDKit          3D

 60 65  0  0  0  0  0  0  0  0999 V2000
   -4.8522   -1.7209  -30.9654 C   0  0  0  0  0  0  0  0  0  0  0  0
   -4.7668   -1.2502  -29.5444 C   0  0  0  0  0  0  0  0  0  0  0  0
   -4.2860   -2.0792  -28.5237 C   0  0  0  0  0  0  0  0  0  0  0  0
   -4.3638   -1.7519  -27.2356 N   0  0  0  0  0  0  0  0  0  0  0  0
   -4.8950   -0.5617  -26.9579 C   0  0  0  0  0  0  0  0  0  0  0  0
   -5.1412   -0.2246  -25.5024 C   0  0  0  0  0  0  0  0  0  0  0  0
   -6.3594   -0.8223  -24.9377 N   0  0  0  0  0  0  0  0  0  0  0  0
   -6.3003   -2.0199  -24.1037 C   0  0  0  0  0  0  0  0  0  0  0  0
   -7.5027   -2.1391  -23.1035 C   0  0  2  0  0  0  0  0  0  0  0  0
   -7.3114   -1.1670  -21.9137 C   0  0  0  0  0  0  0  0  0  0  0  0
   -7.7605   -0.0507  -21.7798 O   0  0  0  0  0  0  0  0  0  0  0  0
   -6.5474   -1.8242  -20.9708 N   0  0  0  0  0  0  0  0  0  0  0  0
   -6.0135   -1.0955  -19.8927 C   0  0  0  0  0  0  0  0  0  0  0  0
   -6.4595   -1.2906  -18.6130 C   0  0  0  0  0  0  0  0  0  0  0  0
   -6.0013   -0.6089  -17.5344 N   0  0  0  0  0  0  0  0  0  0  0  0
   -5.0479    0.2714  -17.7345 C   0  0  0  0  0  0  0  0  0  0  0  0
   -4.4771    0.5447  -19.0108 C   0  0  0  0  0  0  0  0  0  0  0  0
   -3.4042    1.4609  -19.1838 C   0  0  0  0  0  0  0  0  0  0  0  0
   -2.9731    1.7977  -20.4366 C   0  0  0  0  0  0  0  0  0  0  0  0
   -3.6078    1.2495  -21.5778 C   0  0  0  0  0  0  0  0  0  0  0  0
   -4.6136    0.3300  -21.4391 C   0  0  0  0  0  0  0  0  0  0  0  0
   -5.0345   -0.0860  -20.1420 C   0  0  0  0  0  0  0  0  0  0  0  0
   -5.1111   -0.0620  -22.3237 H   0  0  0  0  0  0  0  0  0  0  0  0
   -3.3137    1.5723  -22.5729 H   0  0  0  0  0  0  0  0  0  0  0  0
   -2.1628    2.5103  -20.5722 H   0  0  0  0  0  0  0  0  0  0  0  0
   -2.9485    1.8981  -18.2995 H   0  0  0  0  0  0  0  0  0  0  0  0
   -4.6890    0.8334  -16.8702 H   0  0  0  0  0  0  0  0  0  0  0  0
   -7.2619   -2.0046  -18.4236 H   0  0  0  0  0  0  0  0  0  0  0  0
   -6.3346   -3.2326  -21.2820 C   0  0  0  0  0  0  0  0  0  0  0  0
   -7.4712   -3.4771  -22.2928 C   0  0  2  0  0  0  0  0  0  0  0  0
   -7.3525   -4.7501  -23.1240 C   0  0  0  0  0  0  0  0  0  0  0  0
   -8.1854   -4.8424  -23.8347 H   0  0  0  0  0  0  0  0  0  0  0  0
   -7.3278   -5.6552  -22.5034 H   0  0  0  0  0  0  0  0  0  0  0  0
   -6.4258   -4.7405  -23.7107 H   0  0  0  0  0  0  0  0  0  0  0  0
   -8.4020   -3.4946  -21.7055 H   0  0  0  0  0  0  0  0  0  0  0  0
   -5.3558   -3.4035  -21.7664 H   0  0  0  0  0  0  0  0  0  0  0  0
   -6.3689   -3.8493  -20.3758 H   0  0  0  0  0  0  0  0  0  0  0  0
   -8.7885   -1.8126  -23.8074 C   0  0  0  0  0  0  0  0  0  0  0  0
  -10.0169   -2.2410  -23.2818 C   0  0  0  0  0  0  0  0  0  0  0  0
  -11.1894   -1.7391  -23.8078 C   0  0  0  0  0  0  0  0  0  0  0  0
  -12.3561   -2.1024  -23.2486 F   0  0  0  0  0  0  0  0  0  0  0  0
  -11.2015   -0.8495  -24.8741 C   0  0  0  0  0  0  0  0  0  0  0  0
   -9.9978   -0.4595  -25.4190 C   0  0  0  0  0  0  0  0  0  0  0  0
   -8.7940   -0.9062  -24.8764 C   0  0  0  0  0  0  0  0  0  0  0  0
   -7.5306   -0.3355  -25.4385 C   0  0  0  0  0  0  0  0  0  0  0  0
   -7.5476    0.5494  -26.2908 O   0  0  0  0  0  0  0  0  0  0  0  0
   -9.9550    0.2036  -26.2724 H   0  0  0  0  0  0  0  0  0  0  0  0
  -12.1306   -0.4125  -25.2154 H   0  0  0  0  0  0  0  0  0  0  0  0
  -10.0958   -2.9525  -22.4709 H   0  0  0  0  0  0  0  0  0  0  0  0
   -5.3685   -1.9899  -23.5292 H   0  0  0  0  0  0  0  0  0  0  0  0
   -6.2511   -2.9036  -24.7562 H   0  0  0  0  0  0  0  0  0  0  0  0
   -5.2606    0.8573  -25.4138 H   0  0  0  0  0  0  0  0  0  0  0  0
   -4.2762   -0.5552  -24.9180 H   0  0  0  0  0  0  0  0  0  0  0  0
   -5.2001    0.3354  -27.9875 C   0  0  0  0  0  0  0  0  0  0  0  0
   -5.1747   -0.0081  -29.2736 N   0  0  0  0  0  0  0  0  0  0  0  0
   -5.5266    1.3426  -27.7483 H   0  0  0  0  0  0  0  0  0  0  0  0
   -3.8473   -3.0450  -28.7650 H   0  0  0  0  0  0  0  0  0  0  0  0
   -5.3196   -2.7074  -31.0244 H   0  0  0  0  0  0  0  0  0  0  0  0
   -3.8662   -1.8181  -31.4256 H   0  0  0  0  0  0  0  0  0  0  0  0
   -5.4424   -1.0194  -31.5565 H   0  0  0  0  0  0  0  0  0  0  0  0
  1  2  1  0
  2  3  2  0
  3  4  1  0
  4  5  2  0
  5  6  1  0
  6  7  1  0
  7  8  1  0
  9  8  1  6
  9 10  1  0
 10 11  2  0
 10 12  1  0
 12 13  1  0
 13 14  2  0
 14 15  1  0
 15 16  2  0
 16 17  1  0
 17 18  2  0
 18 19  1  0
 19 20  2  0
 20 21  1  0
 21 22  2  0
 21 23  1  0
 20 24  1  0
 19 25  1  0
 18 26  1  0
 16 27  1  0
 14 28  1  0
 12 29  1  0
 29 30  1  0
 30 31  1  0
 31 32  1  0
 31 33  1  0
 31 34  1  0
 30 35  1  1
 29 36  1  0
 29 37  1  0
  9 38  1  0
 38 39  2  0
 39 40  1  0
 40 41  1  0
 40 42  2  0
 42 43  1  0
 43 44  2  0
 44 45  1  0
 45 46  2  0
 43 47  1  0
 42 48  1  0
 39 49  1  0
  8 50  1  0
  8 51  1  0
  6 52  1  0
  6 53  1  0
  5 54  1  0
 54 55  2  0
 54 56  1  0
  3 57  1  0
  1 58  1  0
  1 59  1  0
  1 60  1  0
 55  2  1  0
 45  7  1  0
 30  9  1  0
 44 38  1  0
 22 13  1  0
 22 17  1  0
M  END
>  <cnnaffinities>  (3) 
[6.01498]

>  <score>  (3) 
6.01498

>  <index>  (3) 
2

>  <Smiles>  (3) 
C(c1c(nc(C(N2C([C@@]3(C(=O)N(c4c(nc(c5c(c(c(c(c45)[H])[H])[H])[H])[H])[H])C([C@@]3(C([H])([H])[H])[H])([H])[H])c3c(c(F)c(c(c3C2=O)[H])[H])[H])([H])[H])([H])[H])c(n1)[H])[H])([H])([H])[H]

>  <h>  (3) 
<NA>

>  <Training>  (3) 
True

>  <Success>  (3) 
True

>  <enamine_searched>  (3) 
False

>  <enamine_id>  (3) 
nan

$$$$

     RDKit          3D

 66 70  0  0  0  0  0  0  0  0999 V2000
   -8.2584   -5.5086  -27.8194 C   0  0  0  0  0  0  0  0  0  0  0  0
   -8.4048   -4.0860  -27.5895 N   0  0  0  0  0  0  0  0  0  0  0  0
   -7.5620   -3.4211  -26.7505 C   0  0  0  0  0  0  0  0  0  0  0  0
   -6.5454   -3.9169  -26.2838 O   0  0  0  0  0  0  0  0  0  0  0  0
   -7.9588   -1.9620  -26.4663 C   0  0  0  0  0  0  0  0  0  0  0  0
   -8.4931   -1.7393  -25.1342 N   0  0  0  0  0  0  0  0  0  0  0  0
   -7.5535   -1.4841  -24.0526 C   0  0  0  0  0  0  0  0  0  0  0  0
   -8.2511   -2.0774  -22.7836 C   0  0  2  0  0  0  0  0  0  0  0  0
   -7.9871   -1.1649  -21.5815 C   0  0  0  0  0  0  0  0  0  0  0  0
   -8.6121   -0.1963  -21.2145 O   0  0  0  0  0  0  0  0  0  0  0  0
   -6.8340   -1.6526  -20.9889 N   0  0  0  0  0  0  0  0  0  0  0  0
   -6.1810   -0.9451  -19.9525 C   0  0  0  0  0  0  0  0  0  0  0  0
   -6.5885   -1.1305  -18.6600 C   0  0  0  0  0  0  0  0  0  0  0  0
   -6.0067   -0.5485  -17.5837 N   0  0  0  0  0  0  0  0  0  0  0  0
   -5.0086    0.2711  -17.8083 C   0  0  0  0  0  0  0  0  0  0  0  0
   -4.4933    0.5667  -19.1041 C   0  0  0  0  0  0  0  0  0  0  0  0
   -3.4228    1.4760  -19.3006 C   0  0  0  0  0  0  0  0  0  0  0  0
   -2.9558    1.7330  -20.5597 C   0  0  0  0  0  0  0  0  0  0  0  0
   -3.5324    1.0959  -21.6805 C   0  0  0  0  0  0  0  0  0  0  0  0
   -4.5768    0.2197  -21.5197 C   0  0  0  0  0  0  0  0  0  0  0  0
   -5.0847   -0.0649  -20.2216 C   0  0  0  0  0  0  0  0  0  0  0  0
   -5.0302   -0.2525  -22.3878 H   0  0  0  0  0  0  0  0  0  0  0  0
   -3.1526    1.3085  -22.6754 H   0  0  0  0  0  0  0  0  0  0  0  0
   -2.1441    2.4381  -20.7107 H   0  0  0  0  0  0  0  0  0  0  0  0
   -3.0010    1.9686  -18.4303 H   0  0  0  0  0  0  0  0  0  0  0  0
   -4.5505    0.7463  -16.9407 H   0  0  0  0  0  0  0  0  0  0  0  0
   -7.4267   -1.7942  -18.4562 H   0  0  0  0  0  0  0  0  0  0  0  0
   -6.3635   -2.9157  -21.5484 C   0  0  0  0  0  0  0  0  0  0  0  0
   -7.6255   -3.4084  -22.2590 C   0  0  2  0  0  0  0  0  0  0  0  0
   -7.5091   -4.5005  -23.3043 C   0  0  0  0  0  0  0  0  0  0  0  0
   -7.3584   -5.7364  -22.6396 O   0  0  0  0  0  0  0  0  0  0  0  0
   -7.1924   -6.8328  -23.5224 C   0  0  0  0  0  0  0  0  0  0  0  0
   -6.5599   -7.9359  -22.6875 C   0  0  0  0  0  0  0  0  0  0  0  0
   -5.7435   -7.5211  -22.0915 H   0  0  0  0  0  0  0  0  0  0  0  0
   -6.1556   -8.7377  -23.3090 H   0  0  0  0  0  0  0  0  0  0  0  0
   -7.3054   -8.3580  -22.0066 H   0  0  0  0  0  0  0  0  0  0  0  0
   -8.5214   -7.2696  -24.1455 C   0  0  0  0  0  0  0  0  0  0  0  0
   -8.3652   -8.1072  -24.8341 H   0  0  0  0  0  0  0  0  0  0  0  0
   -8.9985   -6.4597  -24.7107 H   0  0  0  0  0  0  0  0  0  0  0  0
   -9.2206   -7.5832  -23.3639 H   0  0  0  0  0  0  0  0  0  0  0  0
   -6.5019   -6.5290  -24.3300 H   0  0  0  0  0  0  0  0  0  0  0  0
   -8.4185   -4.5136  -23.9275 H   0  0  0  0  0  0  0  0  0  0  0  0
   -6.6641   -4.3138  -23.9868 H   0  0  0  0  0  0  0  0  0  0  0  0
   -8.2732   -3.8122  -21.4684 H   0  0  0  0  0  0  0  0  0  0  0  0
   -5.5337   -2.7675  -22.2612 H   0  0  0  0  0  0  0  0  0  0  0  0
   -6.0227   -3.5863  -20.7554 H   0  0  0  0  0  0  0  0  0  0  0  0
   -9.6613   -2.2324  -23.2084 C   0  0  0  0  0  0  0  0  0  0  0  0
  -10.6216   -2.5680  -22.2761 C   0  0  0  0  0  0  0  0  0  0  0  0
  -12.0516   -2.4967  -22.3491 C   0  0  0  0  0  0  0  0  0  0  0  0
  -12.7633   -3.3489  -20.8922 Cl  0  0  0  0  0  0  0  0  0  0  0  0
  -12.9866   -1.9212  -23.0453 C   0  0  0  0  0  0  0  0  0  0  0  0
  -11.5574   -1.3708  -24.0452 C   0  0  0  0  0  0  0  0  0  0  0  0
  -11.4695   -1.1562  -23.9148 C   0  0  0  0  0  0  0  0  0  0  0  0
   -9.7012   -2.3852  -24.6821 C   0  0  0  0  0  0  0  0  0  0  0  0
  -10.1911   -3.2752  -25.3974 O   0  0  0  0  0  0  0  0  0  0  0  0
  -10.9223   -1.1733  -24.9830 H   0  0  0  0  0  0  0  0  0  0  0  0
  -14.0886   -1.9498  -22.9825 H   0  0  0  0  0  0  0  0  0  0  0  0
  -10.2571   -2.9919  -21.3432 H   0  0  0  0  0  0  0  0  0  0  0  0
   -6.5822   -1.9580  -24.2724 H   0  0  0  0  0  0  0  0  0  0  0  0
   -7.3645   -0.4077  -23.9132 H   0  0  0  0  0  0  0  0  0  0  0  0
   -8.6365   -1.5954  -27.2481 H   0  0  0  0  0  0  0  0  0  0  0  0
   -7.0437   -1.3656  -26.5325 H   0  0  0  0  0  0  0  0  0  0  0  0
   -9.3442   -3.7208  -27.6458 H   0  0  0  0  0  0  0  0  0  0  0  0
   -8.5463   -6.1100  -26.9442 H   0  0  0  0  0  0  0  0  0  0  0  0
   -8.8829   -5.7951  -28.6707 H   0  0  0  0  0  0  0  0  0  0  0  0
   -7.2155   -5.7298  -28.0552 H   0  0  0  0  0  0  0  0  0  0  0  0
  1  2  1  0
  2  3  1  0
  3  4  2  0
  3  5  1  0
  5  6  1  0
  6  7  1  0
  8  7  1  6
  8  9  1  0
  9 10  2  0
  9 11  1  0
 11 12  1  0
 12 13  2  0
 13 14  1  0
 14 15  2  0
 15 16  1  0
 16 17  2  0
 17 18  1  0
 18 19  2  0
 19 20  1  0
 20 21  2  0
 20 22  1  0
 19 23  1  0
 18 24  1  0
 17 25  1  0
 15 26  1  0
 13 27  1  0
 11 28  1  0
 28 29  1  0
 29 30  1  0
 30 31  1  0
 31 32  1  0
 32 33  1  0
 33 34  1  0
 33 35  1  0
 33 36  1  0
 32 37  1  0
 37 38  1  0
 37 39  1  0
 37 40  1  0
 32 41  1  0
 30 42  1  0
 30 43  1  0
 29 44  1  1
 28 45  1  0
 28 46  1  0
  8 47  1  0
 47 48  2  0
 48 49  1  0
 49 50  1  0
 49 51  2  0
 51 52  1  0
 52 53  2  0
 53 54  1  0
 54 55  2  0
 52 56  1  0
 51 57  1  0
 48 58  1  0
  7 59  1  0
  7 60  1  0
  5 61  1  0
  5 62  1  0
  2 63  1  0
  1 64  1  0
  1 65  1  0
  1 66  1  0
 54  6  1  0
 29  8  1  0
 53 47  1  0
 21 12  1  0
 21 16  1  0
M  END
>  <cnnaffinities>  (4) 
[6.88648]

>  <score>  (4) 
6.88648

>  <index>  (4) 
3

>  <Smiles>  (4) 
C(N(C(=O)C(N1C([C@@]2(C(=O)N(c3c(nc(c4c(c(c(c(c34)[H])[H])[H])[H])[H])[H])C([C@@]2(C(OC(C([H])([H])[H])(C([H])([H])[H])[H])([H])[H])[H])([H])[H])c2c(c(Cl)c(c(c2C1=O)[H])[H])[H])([H])[H])([H])[H])[H])([H])([H])[H]

>  <h>  (4) 
<NA>

>  <Training>  (4) 
True

>  <Success>  (4) 
True

>  <enamine_searched>  (4) 
False

>  <enamine_id>  (4) 
nan

$$$$

     RDKit          3D

 59 64  0  0  0  0  0  0  0  0999 V2000
  -10.2069   -2.9660  -22.0744 C   0  0  0  0  0  0  0  0  0  0  0  0
   -9.1446   -2.0148  -22.6378 C   0  0  1  0  0  0  0  0  0  0  0  0
   -8.6758   -1.0261  -21.5573 C   0  0  0  0  0  0  0  0  0  0  0  0
   -7.3488   -1.4715  -21.2054 N   0  0  0  0  0  0  0  0  0  0  0  0
   -6.5742   -0.8612  -20.1992 C   0  0  0  0  0  0  0  0  0  0  0  0
   -6.9170   -1.0624  -18.8890 C   0  0  0  0  0  0  0  0  0  0  0  0
   -6.2349   -0.5651  -17.8333 N   0  0  0  0  0  0  0  0  0  0  0  0
   -5.1950    0.1898  -18.0995 C   0  0  0  0  0  0  0  0  0  0  0  0
   -4.7510    0.5021  -19.4174 C   0  0  0  0  0  0  0  0  0  0  0  0
   -3.6299    1.3428  -19.6367 C   0  0  0  0  0  0  0  0  0  0  0  0
   -3.2352    1.6534  -20.9076 C   0  0  0  0  0  0  0  0  0  0  0  0
   -3.9473    1.1449  -22.0192 C   0  0  0  0  0  0  0  0  0  0  0  0
   -5.0366    0.3285  -21.8388 C   0  0  0  0  0  0  0  0  0  0  0  0
   -5.4566   -0.0278  -20.5198 C   0  0  0  0  0  0  0  0  0  0  0  0
   -5.5797   -0.0411  -22.7106 H   0  0  0  0  0  0  0  0  0  0  0  0
   -3.6275    1.4137  -23.0221 H   0  0  0  0  0  0  0  0  0  0  0  0
   -2.3818    2.3037  -21.0745 H   0  0  0  0  0  0  0  0  0  0  0  0
   -3.1088    1.7419  -18.7709 H   0  0  0  0  0  0  0  0  0  0  0  0
   -4.6472    0.6054  -17.2535 H   0  0  0  0  0  0  0  0  0  0  0  0
   -7.7781   -1.6898  -18.6600 H   0  0  0  0  0  0  0  0  0  0  0  0
   -6.8263   -2.4297  -22.0324 C   0  0  0  0  0  0  0  0  0  0  0  0
   -5.7462   -2.9609  -21.8667 O   0  0  0  0  0  0  0  0  0  0  0  0
   -7.8395   -2.6790  -23.1651 C   0  0  1  0  0  0  0  0  0  0  0  0
   -7.9776   -4.1871  -23.3967 C   0  0  0  0  0  0  0  0  0  0  0  0
   -6.7704   -4.7295  -23.9959 N   0  0  0  0  0  0  0  0  0  0  0  0
   -6.2112   -5.9269  -23.3832 C   0  0  0  0  0  0  0  0  0  0  0  0
   -7.2555   -7.0126  -23.3948 C   0  0  0  0  0  0  0  0  0  0  0  0
   -7.9259   -7.4981  -22.3692 N   0  0  0  0  0  0  0  0  0  0  0  0
   -8.8995   -8.2902  -22.9394 C   0  0  0  0  0  0  0  0  0  0  0  0
   -8.8132   -8.2622  -24.2929 C   0  0  0  0  0  0  0  0  0  0  0  0
   -7.7523   -7.4589  -24.5850 N   0  0  0  0  0  0  0  0  0  0  0  0
   -7.2461   -7.2496  -25.9264 C   0  0  0  0  0  0  0  0  0  0  0  0
   -7.7534   -7.9631  -26.5780 H   0  0  0  0  0  0  0  0  0  0  0  0
   -7.4672   -6.2458  -26.3012 H   0  0  0  0  0  0  0  0  0  0  0  0
   -6.1711   -7.4383  -25.9403 H   0  0  0  0  0  0  0  0  0  0  0  0
   -9.4131   -8.6951  -25.0729 H   0  0  0  0  0  0  0  0  0  0  0  0
   -9.6368   -8.8398  -22.3796 H   0  0  0  0  0  0  0  0  0  0  0  0
   -5.3117   -6.1937  -23.9523 H   0  0  0  0  0  0  0  0  0  0  0  0
   -5.9081   -5.6641  -22.3619 H   0  0  0  0  0  0  0  0  0  0  0  0
   -6.1902   -4.1814  -25.0950 C   0  0  0  0  0  0  0  0  0  0  0  0
   -5.3681   -4.7780  -25.7826 O   0  0  0  0  0  0  0  0  0  0  0  0
   -6.5960   -2.7760  -25.3841 C   0  0  0  0  0  0  0  0  0  0  0  0
   -6.1396   -2.2137  -26.5707 C   0  0  0  0  0  0  0  0  0  0  0  0
   -6.3806   -0.8890  -26.8545 C   0  0  0  0  0  0  0  0  0  0  0  0
   -7.0821   -0.1508  -25.9115 C   0  0  0  0  0  0  0  0  0  0  0  0
   -7.3092    1.1466  -26.1719 F   0  0  0  0  0  0  0  0  0  0  0  0
   -7.5613   -0.6875  -24.7321 C   0  0  0  0  0  0  0  0  0  0  0  0
   -7.3434   -2.0419  -24.4585 C   0  0  0  0  0  0  0  0  0  0  0  0
   -8.1160   -0.0417  -24.0602 H   0  0  0  0  0  0  0  0  0  0  0  0
   -6.0199   -0.4206  -27.7613 H   0  0  0  0  0  0  0  0  0  0  0  0
   -5.5832   -2.8557  -27.2399 H   0  0  0  0  0  0  0  0  0  0  0  0
   -8.8561   -4.3843  -24.0268 H   0  0  0  0  0  0  0  0  0  0  0  0
   -8.1329   -4.7031  -22.4510 H   0  0  0  0  0  0  0  0  0  0  0  0
   -9.3251   -1.0624  -20.6885 H   0  0  0  0  0  0  0  0  0  0  0  0
   -8.6706    0.0155  -21.9034 H   0  0  0  0  0  0  0  0  0  0  0  0
   -9.6195   -1.4852  -23.4678 H   0  0  0  0  0  0  0  0  0  0  0  0
   -9.8132   -3.5625  -21.2449 H   0  0  0  0  0  0  0  0  0  0  0  0
  -10.5854   -3.6483  -22.8409 H   0  0  0  0  0  0  0  0  0  0  0  0
  -11.0583   -2.3888  -21.6996 H   0  0  0  0  0  0  0  0  0  0  0  0
  1  2  1  0
  2  3  1  0
  3  4  1  0
  4  5  1  0
  5  6  2  0
  6  7  1  0
  7  8  2  0
  8  9  1  0
  9 10  2  0
 10 11  1  0
 11 12  2  0
 12 13  1  0
 13 14  2  0
 13 15  1  0
 12 16  1  0
 11 17  1  0
 10 18  1  0
  8 19  1  0
  6 20  1  0
  4 21  1  0
 21 22  2  0
 21 23  1  0
 23 24  1  6
 24 25  1  0
 25 26  1  0
 26 27  1  0
 27 28  2  0
 28 29  1  0
 29 30  2  0
 30 31  1  0
 31 32  1  0
 32 33  1  0
 32 34  1  0
 32 35  1  0
 30 36  1  0
 29 37  1  0
 26 38  1  0
 26 39  1  0
 25 40  1  0
 40 41  2  0
 40 42  1  0
 42 43  2  0
 43 44  1  0
 44 45  2  0
 45 46  1  0
 45 47  1  0
 47 48  2  0
 47 49  1  0
 44 50  1  0
 43 51  1  0
 24 52  1  0
 24 53  1  0
  3 54  1  0
  3 55  1  0
  2 56  1  6
  1 57  1  0
  1 58  1  0
  1 59  1  0
 23  2  1  0
 31 27  1  0
 48 42  1  0
 14  5  1  0
 48 23  1  0
 14  9  1  0
M  END
>  <cnnaffinities>  (5) 
[6.12391]

>  <score>  (5) 
6.12391

>  <index>  (5) 
4

>  <Smiles>  (5) 
C([C@]1(C(N(c2c(nc(c3c(c(c(c(c23)[H])[H])[H])[H])[H])[H])C(=O)[C@]21C(N(C(c1nc(c(n1C([H])([H])[H])[H])[H])([H])[H])C(=O)c1c(c(c(F)c(c21)[H])[H])[H])([H])[H])([H])[H])[H])([H])([H])[H]

>  <h>  (5) 
<NA>

>  <Training>  (5) 
True

>  <Success>  (5) 
True

>  <enamine_searched>  (5) 
False

>  <enamine_id>  (5) 
nan

$$$$

     RDKit          3D

 58 61  0  0  0  0  0  0  0  0999 V2000
   -5.7768   -3.3036  -23.5188 C   0  0  0  0  0  0  0  0  0  0  0  0
   -6.1409   -3.2596  -22.2436 C   0  0  0  0  0  0  0  0  0  0  0  0
   -7.3903   -2.9163  -21.5129 C   0  0  0  0  0  0  0  0  0  0  0  0
   -7.4296   -1.4812  -21.2257 N   0  0  0  0  0  0  0  0  0  0  0  0
   -8.2811   -0.5245  -21.7989 C   0  0  0  0  0  0  0  0  0  0  0  0
   -8.5812    0.4657  -21.1592 O   0  0  0  0  0  0  0  0  0  0  0  0
   -8.7188   -0.7542  -23.2380 C   0  0  2  0  0  0  0  0  0  0  0  0
   -8.4136    0.4844  -24.0734 C   0  0  0  0  0  0  0  0  0  0  0  0
   -8.7655    0.1827  -25.4610 N   0  0  0  0  0  0  0  0  0  0  0  0
   -7.8866    0.7684  -26.4667 C   0  0  0  0  0  0  0  0  0  0  0  0
   -6.7528   -0.1135  -27.0253 C   0  0  0  0  0  0  0  0  0  0  0  0
   -6.5987   -0.2592  -28.2279 O   0  0  0  0  0  0  0  0  0  0  0  0
   -5.9188   -0.6975  -26.1208 N   0  0  0  0  0  0  0  0  0  0  0  0
   -4.8976   -1.6172  -26.5855 C   0  0  0  0  0  0  0  0  0  0  0  0
   -4.4042   -1.2119  -27.4719 H   0  0  0  0  0  0  0  0  0  0  0  0
   -4.1585   -1.7582  -25.7931 H   0  0  0  0  0  0  0  0  0  0  0  0
   -5.3261   -2.5902  -26.8607 H   0  0  0  0  0  0  0  0  0  0  0  0
   -5.9671   -0.4798  -25.1373 H   0  0  0  0  0  0  0  0  0  0  0  0
   -8.4609    1.1047  -27.3321 H   0  0  0  0  0  0  0  0  0  0  0  0
   -7.4341    1.6650  -26.0174 H   0  0  0  0  0  0  0  0  0  0  0  0
   -9.8599   -0.5939  -25.9301 C   0  0  0  0  0  0  0  0  0  0  0  0
   -9.7488   -1.0732  -27.0568 O   0  0  0  0  0  0  0  0  0  0  0  0
  -10.8903   -0.4500  -24.7758 C   0  0  0  0  0  0  0  0  0  0  0  0
  -11.2348   -0.6941  -24.8573 C   0  0  0  0  0  0  0  0  0  0  0  0
  -11.2050   -2.8668  -23.1200 C   0  0  0  0  0  0  0  0  0  0  0  0
  -12.3489   -2.4644  -22.4876 C   0  0  0  0  0  0  0  0  0  0  0  0
  -13.0432   -3.2155  -21.0719 Cl  0  0  0  0  0  0  0  0  0  0  0  0
  -10.7477   -1.8464  -22.3352 C   0  0  0  0  0  0  0  0  0  0  0  0
  -10.2116   -1.0311  -23.4108 C   0  0  0  0  0  0  0  0  0  0  0  0
  -10.3367   -1.8115  -21.3142 H   0  0  0  0  0  0  0  0  0  0  0  0
  -13.0655   -1.8236  -23.0108 H   0  0  0  0  0  0  0  0  0  0  0  0
  -11.6007   -1.6819  -25.1330 H   0  0  0  0  0  0  0  0  0  0  0  0
   -8.9758    1.3369  -23.6645 H   0  0  0  0  0  0  0  0  0  0  0  0
   -7.3539    0.7594  -24.0319 H   0  0  0  0  0  0  0  0  0  0  0  0
   -8.1792   -1.6210  -23.6314 H   0  0  0  0  0  0  0  0  0  0  0  0
   -6.5866   -1.0171  -20.1811 C   0  0  0  0  0  0  0  0  0  0  0  0
   -6.9119   -1.2476  -18.8697 C   0  0  0  0  0  0  0  0  0  0  0  0
   -6.2401   -0.7317  -17.8143 N   0  0  0  0  0  0  0  0  0  0  0  0
   -5.2171    0.0498  -18.0641 C   0  0  0  0  0  0  0  0  0  0  0  0
   -4.7567    0.3516  -19.3752 C   0  0  0  0  0  0  0  0  0  0  0  0
   -3.6536    1.2191  -19.6034 C   0  0  0  0  0  0  0  0  0  0  0  0
   -3.2406    1.4974  -20.8776 C   0  0  0  0  0  0  0  0  0  0  0  0
   -3.9003    0.9141  -21.9849 C   0  0  0  0  0  0  0  0  0  0  0  0
   -4.9651    0.0668  -21.7864 C   0  0  0  0  0  0  0  0  0  0  0  0
   -5.4417   -0.2112  -20.4750 C   0  0  0  0  0  0  0  0  0  0  0  0
   -5.4693   -0.4001  -22.6301 H   0  0  0  0  0  0  0  0  0  0  0  0
   -3.5680    1.1421  -22.9947 H   0  0  0  0  0  0  0  0  0  0  0  0
   -2.4124    2.1805  -21.0507 H   0  0  0  0  0  0  0  0  0  0  0  0
   -3.1552    1.6599  -18.7431 H   0  0  0  0  0  0  0  0  0  0  0  0
   -4.6907    0.4701  -17.2071 H   0  0  0  0  0  0  0  0  0  0  0  0
   -7.7607   -1.8861  -18.6214 H   0  0  0  0  0  0  0  0  0  0  0  0
   -7.2252   -3.4064  -20.5490 H   0  0  0  0  0  0  0  0  0  0  0  0
   -8.3065   -3.2553  -21.9972 H   0  0  0  0  0  0  0  0  0  0  0  0
   -5.0717   -3.5494  -21.2218 C   0  0  0  0  0  0  0  0  0  0  0  0
   -3.9415   -3.7374  -21.7106 O   0  0  0  0  0  0  0  0  0  0  0  0
   -5.4376   -3.6697  -20.0352 O   0  0  0  0  0  1  0  0  0  0  0  0
   -6.4687   -3.1405  -24.3488 H   0  0  0  0  0  0  0  0  0  0  0  0
   -4.7284   -3.5215  -23.7137 H   0  0  0  0  0  0  0  0  0  0  0  0
  1  2  2  0
  2  3  1  0
  3  4  1  0
  4  5  1  0
  5  6  2  0
  5  7  1  0
  7  8  1  0
  8  9  1  0
  9 10  1  0
 10 11  1  0
 11 12  2  0
 11 13  1  0
 13 14  1  0
 14 15  1  0
 14 16  1  0
 14 17  1  0
 13 18  1  0
 10 19  1  0
 10 20  1  0
  9 21  1  0
 21 22  2  0
 21 23  1  0
 23 24  2  0
 24 25  1  0
 25 26  2  0
 26 27  1  0
 26 28  1  0
 28 29  2  0
 28 30  1  0
 25 31  1  0
 24 32  1  0
  8 33  1  0
  8 34  1  0
  7 35  1  6
  4 36  1  0
 36 37  2  0
 37 38  1  0
 38 39  2  0
 39 40  1  0
 40 41  2  0
 41 42  1  0
 42 43  2  0
 43 44  1  0
 44 45  2  0
 44 46  1  0
 43 47  1  0
 42 48  1  0
 41 49  1  0
 39 50  1  0
 37 51  1  0
  3 52  1  0
  3 53  1  0
  2 54  1  0
 54 55  2  0
 54 56  1  0
  1 57  1  0
  1 58  1  0
 29  7  1  0
 45 36  1  0
 29 23  1  0
 45 40  1  0
M  CHG  1  56  -1
M  END
>  <cnnaffinities>  (6) 
[6.148]

>  <score>  (6) 
6.148

>  <index>  (6) 
5

>  <Smiles>  (6) 
C(=C(C(N(C(=O)[C@@]1(C(N(C(C(=O)N(C([H])([H])[H])[H])([H])[H])C(=O)c2c(c(c(Cl)c(c12)[H])[H])[H])([H])[H])[H])c1c(nc(c2c(c(c(c(c12)[H])[H])[H])[H])[H])[H])([H])[H])C(=O)[O-])([H])[H]

>  <h>  (6) 
<NA>

>  <Training>  (6) 
True

>  <Success>  (6) 
True

>  <enamine_searched>  (6) 
False

>  <enamine_id>  (6) 
nan

$$$$

     RDKit          3D

 43 45  0  0  0  0  0  0  0  0999 V2000
   -9.3208   -8.1160  -24.9631 C   0  0  0  0  0  0  0  0  0  0  0  0
   -9.3200   -6.6039  -25.1475 C   0  0  0  0  0  0  0  0  0  0  0  0
   -9.0020   -5.8143  -23.8750 C   0  0  0  0  0  0  0  0  0  0  0  0
   -7.5657   -5.9950  -23.3997 C   0  0  0  0  0  0  0  0  0  0  0  0
   -7.2679   -5.1708  -22.1556 C   0  0  0  0  0  0  0  0  0  0  0  0
   -7.6208   -3.7605  -22.3154 N   0  0  0  0  0  0  0  0  0  0  0  0
   -6.7906   -2.7984  -21.7751 C   0  0  0  0  0  0  0  0  0  0  0  0
   -5.5882   -2.9795  -21.6751 O   0  0  0  0  0  0  0  0  0  0  0  0
   -7.4227   -1.4825  -21.2562 C   0  0  0  0  0  0  0  0  0  0  0  0
   -6.5825   -0.8236  -20.1824 C   0  0  0  0  0  0  0  0  0  0  0  0
   -6.8736   -1.0423  -18.8637 C   0  0  0  0  0  0  0  0  0  0  0  0
   -6.1826   -0.5496  -17.8013 N   0  0  0  0  0  0  0  0  0  0  0  0
   -5.1582    0.2217  -18.0659 C   0  0  0  0  0  0  0  0  0  0  0  0
   -4.7211    0.5331  -19.3797 C   0  0  0  0  0  0  0  0  0  0  0  0
   -3.5922    1.3593  -19.6205 C   0  0  0  0  0  0  0  0  0  0  0  0
   -3.1886    1.6338  -20.8968 C   0  0  0  0  0  0  0  0  0  0  0  0
   -3.8994    1.0886  -21.9918 C   0  0  0  0  0  0  0  0  0  0  0  0
   -4.9957    0.2893  -21.7851 C   0  0  0  0  0  0  0  0  0  0  0  0
   -5.4449   -0.0100  -20.4748 C   0  0  0  0  0  0  0  0  0  0  0  0
   -5.5182   -0.1382  -22.6361 H   0  0  0  0  0  0  0  0  0  0  0  0
   -3.5698    1.3084  -23.0030 H   0  0  0  0  0  0  0  0  0  0  0  0
   -2.3270    2.2708  -21.0849 H   0  0  0  0  0  0  0  0  0  0  0  0
   -3.0561    1.7750  -18.7677 H   0  0  0  0  0  0  0  0  0  0  0  0
   -4.6039    0.6278  -17.2151 H   0  0  0  0  0  0  0  0  0  0  0  0
   -7.7192   -1.6687  -18.5856 H   0  0  0  0  0  0  0  0  0  0  0  0
   -7.5649   -0.7910  -22.0971 H   0  0  0  0  0  0  0  0  0  0  0  0
   -8.4247   -1.6870  -20.8481 H   0  0  0  0  0  0  0  0  0  0  0  0
   -8.9693   -3.5134  -22.8034 C   0  0  0  0  0  0  0  0  0  0  0  0
   -9.2710   -4.3264  -24.0592 C   0  0  0  0  0  0  0  0  0  0  0  0
   -8.6687   -3.9545  -24.8945 H   0  0  0  0  0  0  0  0  0  0  0  0
  -10.3153   -4.1698  -24.3493 H   0  0  0  0  0  0  0  0  0  0  0  0
   -9.7184   -3.7565  -22.0349 H   0  0  0  0  0  0  0  0  0  0  0  0
   -9.0768   -2.4525  -23.0303 H   0  0  0  0  0  0  0  0  0  0  0  0
   -7.8223   -5.6084  -21.3132 H   0  0  0  0  0  0  0  0  0  0  0  0
   -6.2117   -5.2284  -21.8981 H   0  0  0  0  0  0  0  0  0  0  0  0
   -6.8801   -5.7025  -24.2000 H   0  0  0  0  0  0  0  0  0  0  0  0
   -7.3553   -7.0497  -23.1939 H   0  0  0  0  0  0  0  0  0  0  0  0
   -9.6720   -6.1766  -23.0856 H   0  0  0  0  0  0  0  0  0  0  0  0
  -10.3003   -6.2947  -25.5260 H   0  0  0  0  0  0  0  0  0  0  0  0
   -8.5988   -6.3305  -25.9260 H   0  0  0  0  0  0  0  0  0  0  0  0
   -9.9726   -8.4140  -24.1357 H   0  0  0  0  0  0  0  0  0  0  0  0
   -8.3194   -8.4834  -24.7365 H   0  0  0  0  0  0  0  0  0  0  0  0
   -9.6690   -8.6345  -25.8627 H   0  0  0  0  0  0  0  0  0  0  0  0
  1  2  1  0
  2  3  1  0
  3  4  1  0
  4  5  1  0
  5  6  1  0
  6  7  1  0
  7  8  2  0
  7  9  1  0
  9 10  1  0
 10 11  2  0
 11 12  1  0
 12 13  2  0
 13 14  1  0
 14 15  2  0
 15 16  1  0
 16 17  2  0
 17 18  1  0
 18 19  2  0
 18 20  1  0
 17 21  1  0
 16 22  1  0
 15 23  1  0
 13 24  1  0
 11 25  1  0
  9 26  1  0
  9 27  1  0
  6 28  1  0
 28 29  1  0
 29 30  1  0
 29 31  1  0
 28 32  1  0
 28 33  1  0
  5 34  1  0
  5 35  1  0
  4 36  1  0
  4 37  1  0
  3 38  1  0
  2 39  1  0
  2 40  1  0
  1 41  1  0
  1 42  1  0
  1 43  1  0
 29  3  1  0
 19 10  1  0
 19 14  1  0
M  END
>  <cnnaffinities>  (7) 
[5.09972, 5.09906]

>  <score>  (7) 
5.09972

>  <index>  (7) 
6

>  <Smiles>  (7) 
C(C(C1(C(C(N(C(=O)C(c2c(nc(c3c(c(c(c(c23)[H])[H])[H])[H])[H])[H])([H])[H])C(C1([H])[H])([H])[H])([H])[H])([H])[H])[H])([H])[H])([H])([H])[H]

>  <h>  (7) 
<NA>

>  <Training>  (7) 
True

>  <Success>  (7) 
True

>  <enamine_searched>  (7) 
False

>  <enamine_id>  (7) 
nan

$$$$

     RDKit          3D

 44 47  0  0  0  0  0  0  0  0999 V2000
   -9.6216   -6.3969  -25.6826 C   0  0  0  0  0  0  0  0  0  0  0  0
  -10.9501   -6.2306  -24.9606 C   0  0  0  0  0  0  0  0  0  0  0  0
  -11.2133   -4.6039  -24.2578 S   0  0  0  0  0  0  0  0  0  0  0  0
  -12.5011   -4.6076  -23.5898 O   0  0  0  0  0  0  0  0  0  0  0  0
  -10.9481   -3.6272  -25.3065 O   0  0  0  0  0  0  0  0  0  0  0  0
  -10.0016   -4.5219  -23.0819 N   0  0  0  0  0  0  0  0  0  0  0  0
  -10.1325   -3.6124  -21.8996 C   0  0  0  0  0  0  0  0  0  0  0  0
   -8.8754   -2.8360  -22.3665 C   0  0  0  0  0  0  0  0  0  0  0  0
   -8.7170   -3.8983  -23.4659 C   0  0  0  0  0  0  0  0  0  0  0  0
   -8.6422   -3.5201  -24.4864 H   0  0  0  0  0  0  0  0  0  0  0  0
   -7.9022   -4.5816  -23.2261 H   0  0  0  0  0  0  0  0  0  0  0  0
   -7.6787   -2.7430  -21.4360 C   0  0  0  0  0  0  0  0  0  0  0  0
   -6.9953   -3.6389  -20.9971 O   0  0  0  0  0  0  0  0  0  0  0  0
   -7.4540   -1.3901  -21.2302 N   0  0  0  0  0  0  0  0  0  0  0  0
   -6.6208   -0.8567  -20.2136 C   0  0  0  0  0  0  0  0  0  0  0  0
   -6.9295   -1.0977  -18.9008 C   0  0  0  0  0  0  0  0  0  0  0  0
   -6.2486   -0.5911  -17.8473 N   0  0  0  0  0  0  0  0  0  0  0  0
   -5.2284    0.1870  -18.1119 C   0  0  0  0  0  0  0  0  0  0  0  0
   -4.7945    0.5103  -19.4249 C   0  0  0  0  0  0  0  0  0  0  0  0
   -3.6582    1.3335  -19.6352 C   0  0  0  0  0  0  0  0  0  0  0  0
   -3.2253    1.5909  -20.9059 C   0  0  0  0  0  0  0  0  0  0  0  0
   -3.9119    1.0436  -22.0142 C   0  0  0  0  0  0  0  0  0  0  0  0
   -5.0259    0.2594  -21.8365 C   0  0  0  0  0  0  0  0  0  0  0  0
   -5.4989   -0.0275  -20.5243 C   0  0  0  0  0  0  0  0  0  0  0  0
   -5.5518   -0.1437  -22.6975 H   0  0  0  0  0  0  0  0  0  0  0  0
   -3.5442    1.2389  -23.0185 H   0  0  0  0  0  0  0  0  0  0  0  0
   -2.3453    2.2061  -21.0731 H   0  0  0  0  0  0  0  0  0  0  0  0
   -3.1424    1.7318  -18.7649 H   0  0  0  0  0  0  0  0  0  0  0  0
   -4.6734    0.5858  -17.2634 H   0  0  0  0  0  0  0  0  0  0  0  0
   -7.7788   -1.7265  -18.6509 H   0  0  0  0  0  0  0  0  0  0  0  0
   -8.3055   -0.5960  -22.0093 C   0  0  0  0  0  0  0  0  0  0  0  0
   -8.3092    0.6112  -22.0249 O   0  0  0  0  0  0  0  0  0  0  0  0
   -9.0974   -1.4520  -22.7230 N   0  0  0  0  0  0  0  0  0  0  0  0
   -9.9726   -0.9742  -23.7777 C   0  0  0  0  0  0  0  0  0  0  0  0
  -10.2641    0.0485  -23.5390 H   0  0  0  0  0  0  0  0  0  0  0  0
   -9.4707   -0.9650  -24.7521 H   0  0  0  0  0  0  0  0  0  0  0  0
  -10.8574   -1.6099  -23.8551 H   0  0  0  0  0  0  0  0  0  0  0  0
  -11.0431   -3.0108  -21.8437 H   0  0  0  0  0  0  0  0  0  0  0  0
   -9.9768   -4.1599  -20.9718 H   0  0  0  0  0  0  0  0  0  0  0  0
  -11.7939   -6.3855  -25.6436 H   0  0  0  0  0  0  0  0  0  0  0  0
  -11.0484   -6.9301  -24.1377 H   0  0  0  0  0  0  0  0  0  0  0  0
   -8.7674   -6.3249  -25.0007 H   0  0  0  0  0  0  0  0  0  0  0  0
   -9.5225   -5.6364  -26.4595 H   0  0  0  0  0  0  0  0  0  0  0  0
   -9.5702   -7.3872  -26.1485 H   0  0  0  0  0  0  0  0  0  0  0  0
  1  2  1  0
  2  3  1  0
  3  4  2  0
  3  5  2  0
  3  6  1  0
  6  7  1  0
  7  8  1  0
  8  9  1  0
  9 10  1  0
  9 11  1  0
  8 12  1  0
 12 13  2  0
 12 14  1  0
 14 15  1  0
 15 16  2  0
 16 17  1  0
 17 18  2  0
 18 19  1  0
 19 20  2  0
 20 21  1  0
 21 22  2  0
 22 23  1  0
 23 24  2  0
 23 25  1  0
 22 26  1  0
 21 27  1  0
 20 28  1  0
 18 29  1  0
 16 30  1  0
 14 31  1  0
 31 32  2  0
 31 33  1  0
 33 34  1  0
 34 35  1  0
 34 36  1  0
 34 37  1  0
  7 38  1  0
  7 39  1  0
  2 40  1  0
  2 41  1  0
  1 42  1  0
  1 43  1  0
  1 44  1  0
  9  6  1  0
 24 15  1  0
 33  8  1  0
 24 19  1  0
M  END
>  <cnnaffinities>  (8) 
[5.67183, 5.60509]

>  <score>  (8) 
5.67183

>  <index>  (8) 
7

>  <Smiles>  (8) 
C(C(S(=O)(=O)N1C(C2(C1([H])[H])C(=O)N(c1c(nc(c3c(c(c(c(c13)[H])[H])[H])[H])[H])[H])C(=O)N2C([H])([H])[H])([H])[H])([H])[H])([H])([H])[H]

>  <h>  (8) 
<NA>

>  <Training>  (8) 
True

>  <Success>  (8) 
True

>  <enamine_searched>  (8) 
False

>  <enamine_id>  (8) 
nan

$$$$

     RDKit          3D

 60 64  0  0  0  0  0  0  0  0999 V2000
   -5.1890   -3.9269  -19.1763 C   0  0  0  0  0  0  0  0  0  0  0  0
   -6.2092   -4.5873  -19.9471 N   0  0  0  0  0  0  0  0  0  0  0  0
   -6.1066   -5.8542  -20.3933 C   0  0  0  0  0  0  0  0  0  0  0  0
   -5.1551   -6.5687  -20.1160 O   0  0  0  0  0  0  0  0  0  0  0  0
   -7.3256   -6.3415  -21.2112 C   0  0  0  0  0  0  0  0  0  0  0  0
   -7.6490   -5.4676  -22.3264 N   0  0  0  0  0  0  0  0  0  0  0  0
   -8.5535   -4.3145  -22.2967 C   0  0  0  0  0  0  0  0  0  0  0  0
   -7.9025   -3.0485  -22.9390 C   0  0  2  0  0  0  0  0  0  0  0  0
   -6.7872   -2.4486  -22.0490 C   0  0  0  0  0  0  0  0  0  0  0  0
   -5.6155   -2.7752  -22.0163 O   0  0  0  0  0  0  0  0  0  0  0  0
   -7.3236   -1.4552  -21.2617 N   0  0  0  0  0  0  0  0  0  0  0  0
   -6.5871   -0.8380  -20.2246 C   0  0  0  0  0  0  0  0  0  0  0  0
   -6.9714   -1.0090  -18.9177 C   0  0  0  0  0  0  0  0  0  0  0  0
   -6.2802   -0.5398  -17.8529 N   0  0  0  0  0  0  0  0  0  0  0  0
   -5.2126    0.1859  -18.0961 C   0  0  0  0  0  0  0  0  0  0  0  0
   -4.7399    0.4868  -19.4029 C   0  0  0  0  0  0  0  0  0  0  0  0
   -3.6103    1.3213  -19.6150 C   0  0  0  0  0  0  0  0  0  0  0  0
   -3.1973    1.6241  -20.8823 C   0  0  0  0  0  0  0  0  0  0  0  0
   -3.8903    1.1056  -21.9990 C   0  0  0  0  0  0  0  0  0  0  0  0
   -4.9831    0.2973  -21.8212 C   0  0  0  0  0  0  0  0  0  0  0  0
   -5.4380   -0.0361  -20.5139 C   0  0  0  0  0  0  0  0  0  0  0  0
   -5.5081   -0.0974  -22.6851 H   0  0  0  0  0  0  0  0  0  0  0  0
   -3.5590    1.3546  -23.0031 H   0  0  0  0  0  0  0  0  0  0  0  0
   -2.3455    2.2788  -21.0436 H   0  0  0  0  0  0  0  0  0  0  0  0
   -3.1037    1.7326  -18.7449 H   0  0  0  0  0  0  0  0  0  0  0  0
   -4.6643    0.5696  -17.2359 H   0  0  0  0  0  0  0  0  0  0  0  0
   -7.8380   -1.6202  -18.6664 H   0  0  0  0  0  0  0  0  0  0  0  0
   -8.6988   -1.1250  -21.5926 C   0  0  0  0  0  0  0  0  0  0  0  0
   -8.8616   -1.8095  -22.9576 C   0  0  2  0  0  0  0  0  0  0  0  0
  -10.3116   -2.0054  -23.3577 C   0  0  0  0  0  0  0  0  0  0  0  0
  -11.0297   -2.5690  -22.2823 O   0  0  0  0  0  0  0  0  0  0  0  0
  -12.3663   -2.8534  -22.6047 C   0  0  0  0  0  0  0  0  0  0  0  0
  -12.4354   -3.5886  -23.4215 H   0  0  0  0  0  0  0  0  0  0  0  0
  -12.8340   -3.2700  -21.7088 H   0  0  0  0  0  0  0  0  0  0  0  0
  -12.9152   -1.9471  -22.9036 H   0  0  0  0  0  0  0  0  0  0  0  0
  -10.7519   -1.0303  -23.6294 H   0  0  0  0  0  0  0  0  0  0  0  0
  -10.3754   -2.6568  -24.2446 H   0  0  0  0  0  0  0  0  0  0  0  0
   -8.4269   -1.1240  -23.6894 H   0  0  0  0  0  0  0  0  0  0  0  0
   -9.4188   -1.5060  -20.8612 H   0  0  0  0  0  0  0  0  0  0  0  0
   -8.8327   -0.0383  -21.6639 H   0  0  0  0  0  0  0  0  0  0  0  0
   -7.3136   -3.4618  -24.2813 C   0  0  0  0  0  0  0  0  0  0  0  0
   -6.9600   -2.5139  -25.2541 C   0  0  0  0  0  0  0  0  0  0  0  0
   -6.3301   -2.9053  -26.4255 C   0  0  0  0  0  0  0  0  0  0  0  0
   -5.8896   -1.6903  -27.5962 Cl  0  0  0  0  0  0  0  0  0  0  0  0
   -6.0223   -4.2401  -26.6862 C   0  0  0  0  0  0  0  0  0  0  0  0
   -6.3442   -5.1764  -25.7287 C   0  0  0  0  0  0  0  0  0  0  0  0
   -6.9621   -4.7946  -24.5419 C   0  0  0  0  0  0  0  0  0  0  0  0
   -7.0916   -5.8630  -23.5135 C   0  0  0  0  0  0  0  0  0  0  0  0
   -6.6557   -6.9918  -23.6882 O   0  0  0  0  0  0  0  0  0  0  0  0
   -6.1035   -6.2263  -25.8556 H   0  0  0  0  0  0  0  0  0  0  0  0
   -5.5251   -4.5275  -27.6062 H   0  0  0  0  0  0  0  0  0  0  0  0
   -7.1480   -1.4569  -25.1101 H   0  0  0  0  0  0  0  0  0  0  0  0
   -8.8985   -4.1070  -21.2811 H   0  0  0  0  0  0  0  0  0  0  0  0
   -9.4466   -4.5494  -22.8924 H   0  0  0  0  0  0  0  0  0  0  0  0
   -7.0524   -7.3127  -21.6243 H   0  0  0  0  0  0  0  0  0  0  0  0
   -8.2203   -6.5064  -20.6077 H   0  0  0  0  0  0  0  0  0  0  0  0
   -6.9869   -4.0391  -20.2788 H   0  0  0  0  0  0  0  0  0  0  0  0
   -4.2976   -3.7759  -19.7867 H   0  0  0  0  0  0  0  0  0  0  0  0
   -5.5534   -2.9610  -18.8276 H   0  0  0  0  0  0  0  0  0  0  0  0
   -4.9607   -4.4887  -18.2762 H   0  0  0  0  0  0  0  0  0  0  0  0
  1  2  1  0
  2  3  1  0
  3  4  2  0
  3  5  1  0
  5  6  1  0
  6  7  1  0
  8  7  1  1
  8  9  1  0
  9 10  2  0
  9 11  1  0
 11 12  1  0
 12 13  2  0
 13 14  1  0
 14 15  2  0
 15 16  1  0
 16 17  2  0
 17 18  1  0
 18 19  2  0
 19 20  1  0
 20 21  2  0
 20 22  1  0
 19 23  1  0
 18 24  1  0
 17 25  1  0
 15 26  1  0
 13 27  1  0
 11 28  1  0
 28 29  1  0
 29 30  1  0
 30 31  1  0
 31 32  1  0
 32 33  1  0
 32 34  1  0
 32 35  1  0
 30 36  1  0
 30 37  1  0
 29 38  1  6
 28 39  1  0
 28 40  1  0
  8 41  1  0
 41 42  2  0
 42 43  1  0
 43 44  1  0
 43 45  2  0
 45 46  1  0
 46 47  2  0
 47 48  1  0
 48 49  2  0
 46 50  1  0
 45 51  1  0
 42 52  1  0
  7 53  1  0
  7 54  1  0
  5 55  1  0
  5 56  1  0
  2 57  1  0
  1 58  1  0
  1 59  1  0
  1 60  1  0
 48  6  1  0
 29  8  1  0
 47 41  1  0
 21 12  1  0
 21 16  1  0
M  END
>  <cnnaffinities>  (9) 
[6.47843]

>  <score>  (9) 
6.47843

>  <index>  (9) 
8

>  <Smiles>  (9) 
C(N(C(=O)C(N1C([C@@]2(C(=O)N(c3c(nc(c4c(c(c(c(c34)[H])[H])[H])[H])[H])[H])C([C@@]2(C(OC([H])([H])[H])([H])[H])[H])([H])[H])c2c(c(Cl)c(c(c2C1=O)[H])[H])[H])([H])[H])([H])[H])[H])([H])([H])[H]

>  <h>  (9) 
<NA>

>  <Training>  (9) 
True

>  <Success>  (9) 
True

>  <enamine_searched>  (9) 
False

>  <enamine_id>  (9) 
nan

$$$$

     RDKit          3D

 41 43  0  0  0  0  0  0  0  0999 V2000
  -10.1658   -5.9868  -24.5255 C   0  0  0  0  0  0  0  0  0  0  0  0
   -9.1456   -4.8573  -24.4059 C   0  0  1  0  0  0  0  0  0  0  0  0
   -9.8256   -3.5716  -23.9801 C   0  0  0  0  0  0  0  0  0  0  0  0
   -9.2215   -2.3903  -23.8921 C   0  0  0  0  0  0  0  0  0  0  0  0
   -7.7440   -2.2178  -24.1393 C   0  0  0  0  0  0  0  0  0  0  0  0
   -6.8961   -3.0075  -23.2540 N   0  0  0  0  0  0  0  0  0  0  0  0
   -6.6757   -2.6773  -21.9266 C   0  0  0  0  0  0  0  0  0  0  0  0
   -5.9367   -3.3551  -21.2360 O   0  0  0  0  0  0  0  0  0  0  0  0
   -7.3913   -1.4592  -21.2866 C   0  0  0  0  0  0  0  0  0  0  0  0
   -6.5735   -0.8285  -20.1820 C   0  0  0  0  0  0  0  0  0  0  0  0
   -6.8713   -1.0476  -18.8628 C   0  0  0  0  0  0  0  0  0  0  0  0
   -6.1844   -0.5484  -17.7988 N   0  0  0  0  0  0  0  0  0  0  0  0
   -5.1577    0.2213  -18.0635 C   0  0  0  0  0  0  0  0  0  0  0  0
   -4.7210    0.5349  -19.3785 C   0  0  0  0  0  0  0  0  0  0  0  0
   -3.5932    1.3602  -19.6213 C   0  0  0  0  0  0  0  0  0  0  0  0
   -3.1942    1.6372  -20.9004 C   0  0  0  0  0  0  0  0  0  0  0  0
   -3.9085    1.0957  -21.9931 C   0  0  0  0  0  0  0  0  0  0  0  0
   -5.0031    0.2958  -21.7857 C   0  0  0  0  0  0  0  0  0  0  0  0
   -5.4444   -0.0064  -20.4715 C   0  0  0  0  0  0  0  0  0  0  0  0
   -5.5362   -0.1115  -22.6405 H   0  0  0  0  0  0  0  0  0  0  0  0
   -3.5860    1.3207  -23.0055 H   0  0  0  0  0  0  0  0  0  0  0  0
   -2.3337    2.2751  -21.0897 H   0  0  0  0  0  0  0  0  0  0  0  0
   -3.0552    1.7743  -18.7713 H   0  0  0  0  0  0  0  0  0  0  0  0
   -4.6033    0.6286  -17.2147 H   0  0  0  0  0  0  0  0  0  0  0  0
   -7.7223   -1.6714  -18.5892 H   0  0  0  0  0  0  0  0  0  0  0  0
   -8.3289   -1.8334  -20.8489 H   0  0  0  0  0  0  0  0  0  0  0  0
   -7.6826   -0.7020  -22.0225 H   0  0  0  0  0  0  0  0  0  0  0  0
   -6.7213   -4.4138  -23.6295 C   0  0  0  0  0  0  0  0  0  0  0  0
   -7.9844   -5.2684  -23.4769 C   0  0  0  0  0  0  0  0  0  0  0  0
   -8.3196   -5.2204  -22.4362 H   0  0  0  0  0  0  0  0  0  0  0  0
   -7.7266   -6.3219  -23.6675 H   0  0  0  0  0  0  0  0  0  0  0  0
   -6.4110   -4.4408  -24.6791 H   0  0  0  0  0  0  0  0  0  0  0  0
   -5.9036   -4.8217  -23.0327 H   0  0  0  0  0  0  0  0  0  0  0  0
   -7.4483   -1.1678  -24.0913 H   0  0  0  0  0  0  0  0  0  0  0  0
   -7.5075   -2.5381  -25.1597 H   0  0  0  0  0  0  0  0  0  0  0  0
   -9.7909   -1.5053  -23.6026 H   0  0  0  0  0  0  0  0  0  0  0  0
  -10.8809   -3.6358  -23.7136 H   0  0  0  0  0  0  0  0  0  0  0  0
   -8.7156   -4.6988  -25.4047 H   0  0  0  0  0  0  0  0  0  0  0  0
  -10.5957   -6.2032  -23.5440 H   0  0  0  0  0  0  0  0  0  0  0  0
   -9.7114   -6.9099  -24.9062 H   0  0  0  0  0  0  0  0  0  0  0  0
  -10.9880   -5.7133  -25.1974 H   0  0  0  0  0  0  0  0  0  0  0  0
  1  2  1  0
  2  3  1  0
  3  4  2  0
  4  5  1  0
  5  6  1  0
  6  7  1  0
  7  8  2  0
  7  9  1  0
  9 10  1  0
 10 11  2  0
 11 12  1  0
 12 13  2  0
 13 14  1  0
 14 15  2  0
 15 16  1  0
 16 17  2  0
 17 18  1  0
 18 19  2  0
 18 20  1  0
 17 21  1  0
 16 22  1  0
 15 23  1  0
 13 24  1  0
 11 25  1  0
  9 26  1  0
  9 27  1  0
  6 28  1  0
 28 29  1  0
 29 30  1  0
 29 31  1  0
 28 32  1  0
 28 33  1  0
  5 34  1  0
  5 35  1  0
  4 36  1  0
  3 37  1  0
  2 38  1  6
  1 39  1  0
  1 40  1  0
  1 41  1  0
 29  2  1  0
 19 10  1  0
 19 14  1  0
M  END
>  <cnnaffinities>  (10) 
[5.34778, 5.01137, 5.31168, 5.22325, 5.04307, 5.13985, 5.20371]

>  <score>  (10) 
5.34778

>  <index>  (10) 
9

>  <Smiles>  (10) 
C([C@]1(C(=C(C(N(C(=O)C(c2c(nc(c3c(c(c(c(c23)[H])[H])[H])[H])[H])[H])([H])[H])C(C1([H])[H])([H])[H])([H])[H])[H])[H])[H])([H])([H])[H]

>  <h>  (10) 
<NA>

>  <Training>  (10) 
True

>  <Success>  (10) 
True

>  <enamine_searched>  (10) 
False

>  <enamine_id>  (10) 
nan

$$$$

     RDKit          3D

 57 62  0  0  0  0  0  0  0  0999 V2000
  -10.2136   -2.9600  -22.0695 C   0  0  0  0  0  0  0  0  0  0  0  0
   -9.1527   -2.0037  -22.6293 C   0  0  1  0  0  0  0  0  0  0  0  0
   -8.6928   -1.0100  -21.5492 C   0  0  0  0  0  0  0  0  0  0  0  0
   -7.3643   -1.4426  -21.1953 N   0  0  0  0  0  0  0  0  0  0  0  0
   -6.5838   -0.8419  -20.1903 C   0  0  0  0  0  0  0  0  0  0  0  0
   -6.9177   -1.0517  -18.8791 C   0  0  0  0  0  0  0  0  0  0  0  0
   -6.2299   -0.5604  -17.8242 N   0  0  0  0  0  0  0  0  0  0  0  0
   -5.1917    0.1962  -18.0926 C   0  0  0  0  0  0  0  0  0  0  0  0
   -4.7518    0.5089  -19.4120 C   0  0  0  0  0  0  0  0  0  0  0  0
   -3.6275    1.3459  -19.6334 C   0  0  0  0  0  0  0  0  0  0  0  0
   -3.2337    1.6534  -20.9058 C   0  0  0  0  0  0  0  0  0  0  0  0
   -3.9453    1.1438  -22.0157 C   0  0  0  0  0  0  0  0  0  0  0  0
   -5.0378    0.3319  -21.8339 C   0  0  0  0  0  0  0  0  0  0  0  0
   -5.4612   -0.0166  -20.5125 C   0  0  0  0  0  0  0  0  0  0  0  0
   -5.5787   -0.0413  -22.7047 H   0  0  0  0  0  0  0  0  0  0  0  0
   -3.6260    1.4101  -23.0202 H   0  0  0  0  0  0  0  0  0  0  0  0
   -2.3809    2.3046  -21.0745 H   0  0  0  0  0  0  0  0  0  0  0  0
   -3.1055    1.7470  -18.7697 H   0  0  0  0  0  0  0  0  0  0  0  0
   -4.6416    0.6120  -17.2477 H   0  0  0  0  0  0  0  0  0  0  0  0
   -7.7732   -1.6864  -18.6514 H   0  0  0  0  0  0  0  0  0  0  0  0
   -6.8389   -2.4039  -22.0149 C   0  0  0  0  0  0  0  0  0  0  0  0
   -5.7662   -2.9435  -21.8315 O   0  0  0  0  0  0  0  0  0  0  0  0
   -7.8434   -2.6631  -23.1497 C   0  0  1  0  0  0  0  0  0  0  0  0
   -7.9591   -4.1718  -23.3457 C   0  0  0  0  0  0  0  0  0  0  0  0
   -6.7169   -4.6887  -23.8829 N   0  0  0  0  0  0  0  0  0  0  0  0
   -6.2909   -6.0046  -23.4370 C   0  0  0  0  0  0  0  0  0  0  0  0
   -7.1591   -7.0643  -24.0623 C   0  0  0  0  0  0  0  0  0  0  0  0
   -7.0955   -7.5761  -25.3118 C   0  0  0  0  0  0  0  0  0  0  0  0
   -8.2663   -8.2686  -25.5444 N   0  0  0  0  0  4  0  0  0  0  0  0
   -9.0261   -8.1823  -24.4498 C   0  0  0  0  0  0  0  0  0  0  0  0
   -8.3726   -7.4720  -23.5184 N   0  0  0  0  0  0  0  0  0  0  0  0
   -8.6976   -7.2314  -22.5858 H   0  0  0  0  0  0  0  0  0  0  0  0
   -9.9979   -8.6097  -24.3090 H   0  0  0  0  0  0  0  0  0  0  0  0
   -8.4138   -8.8399  -26.3732 H   0  0  0  0  0  0  0  0  0  0  0  0
   -6.3155   -7.4969  -26.0563 H   0  0  0  0  0  0  0  0  0  0  0  0
   -5.2405   -6.1253  -23.7289 H   0  0  0  0  0  0  0  0  0  0  0  0
   -6.3430   -6.0107  -22.3348 H   0  0  0  0  0  0  0  0  0  0  0  0
   -6.2305   -4.2217  -25.0723 C   0  0  0  0  0  0  0  0  0  0  0  0
   -5.4996   -4.8854  -25.7986 O   0  0  0  0  0  0  0  0  0  0  0  0
   -6.6106   -2.8126  -25.3701 C   0  0  0  0  0  0  0  0  0  0  0  0
   -6.1718   -2.2690  -26.5746 C   0  0  0  0  0  0  0  0  0  0  0  0
   -6.3945   -0.9436  -26.8776 C   0  0  0  0  0  0  0  0  0  0  0  0
   -7.0722   -0.1821  -25.9341 C   0  0  0  0  0  0  0  0  0  0  0  0
   -7.2796    1.1183  -26.2005 F   0  0  0  0  0  0  0  0  0  0  0  0
   -7.5457   -0.6991  -24.7408 C   0  0  0  0  0  0  0  0  0  0  0  0
   -7.3401   -2.0526  -24.4509 C   0  0  0  0  0  0  0  0  0  0  0  0
   -8.0846   -0.0439  -24.0630 H   0  0  0  0  0  0  0  0  0  0  0  0
   -6.0380   -0.4860  -27.7965 H   0  0  0  0  0  0  0  0  0  0  0  0
   -5.6421   -2.9197  -27.2556 H   0  0  0  0  0  0  0  0  0  0  0  0
   -8.1546   -4.6511  -22.3861 H   0  0  0  0  0  0  0  0  0  0  0  0
   -8.7995   -4.3902  -24.0187 H   0  0  0  0  0  0  0  0  0  0  0  0
   -8.7002    0.0328  -21.8906 H   0  0  0  0  0  0  0  0  0  0  0  0
   -9.3374   -1.0519  -20.6794 H   0  0  0  0  0  0  0  0  0  0  0  0
   -9.6366   -1.4721  -23.4512 H   0  0  0  0  0  0  0  0  0  0  0  0
  -11.0757   -2.3952  -21.6993 H   0  0  0  0  0  0  0  0  0  0  0  0
  -10.5814   -3.6451  -22.8374 H   0  0  0  0  0  0  0  0  0  0  0  0
   -9.8263   -3.5557  -21.2378 H   0  0  0  0  0  0  0  0  0  0  0  0
  1  2  1  0
  2  3  1  0
  3  4  1  0
  4  5  1  0
  5  6  2  0
  6  7  1  0
  7  8  2  0
  8  9  1  0
  9 10  2  0
 10 11  1  0
 11 12  2  0
 12 13  1  0
 13 14  2  0
 13 15  1  0
 12 16  1  0
 11 17  1  0
 10 18  1  0
  8 19  1  0
  6 20  1  0
  4 21  1  0
 21 22  2  0
 21 23  1  0
 23 24  1  6
 24 25  1  0
 25 26  1  0
 26 27  1  0
 27 28  2  0
 28 29  1  0
 29 30  2  0
 30 31  1  0
 31 32  1  0
 30 33  1  0
 29 34  1  0
 28 35  1  0
 26 36  1  0
 26 37  1  0
 25 38  1  0
 38 39  2  0
 38 40  1  0
 40 41  2  0
 41 42  1  0
 42 43  2  0
 43 44  1  0
 43 45  1  0
 45 46  2  0
 45 47  1  0
 42 48  1  0
 41 49  1  0
 24 50  1  0
 24 51  1  0
  3 52  1  0
  3 53  1  0
  2 54  1  6
  1 55  1  0
  1 56  1  0
  1 57  1  0
 23  2  1  0
 31 27  1  0
 46 40  1  0
 14  5  1  0
 46 23  1  0
 14  9  1  0
M  CHG  1  29   1
M  END
>  <cnnaffinities>  (11) 
[6.16881]

>  <score>  (11) 
6.16881

>  <index>  (11) 
10

>  <Smiles>  (11) 
C([C@]1(C(N(c2c(nc(c3c(c(c(c(c23)[H])[H])[H])[H])[H])[H])C(=O)[C@]21C(N(C(c1c([n+](c(n1[H])[H])[H])[H])([H])[H])C(=O)c1c(c(c(F)c(c21)[H])[H])[H])([H])[H])([H])[H])[H])([H])([H])[H]

>  <h>  (11) 
<NA>

>  <Training>  (11) 
True

>  <Success>  (11) 
True

>  <enamine_searched>  (11) 
False

>  <enamine_id>  (11) 
nan

$$$$

     RDKit          3D

 48 52  0  0  0  0  0  0  0  0999 V2000
  -10.0605   -0.8821  -23.6843 C   0  0  0  0  0  0  0  0  0  0  0  0
   -9.1007   -1.4023  -22.7236 N   0  0  0  0  0  0  0  0  0  0  0  0
   -8.3005   -0.5563  -22.0057 C   0  0  0  0  0  0  0  0  0  0  0  0
   -8.3080    0.6537  -22.0134 O   0  0  0  0  0  0  0  0  0  0  0  0
   -7.4515   -1.3632  -21.2382 N   0  0  0  0  0  0  0  0  0  0  0  0
   -6.6262   -0.8373  -20.2165 C   0  0  0  0  0  0  0  0  0  0  0  0
   -6.9397   -1.0967  -18.9084 C   0  0  0  0  0  0  0  0  0  0  0  0
   -6.2571   -0.5982  -17.8517 N   0  0  0  0  0  0  0  0  0  0  0  0
   -5.2355    0.1818  -18.1103 C   0  0  0  0  0  0  0  0  0  0  0  0
   -4.7939    0.5163  -19.4213 C   0  0  0  0  0  0  0  0  0  0  0  0
   -3.6562    1.3385  -19.6349 C   0  0  0  0  0  0  0  0  0  0  0  0
   -3.2207    1.5886  -20.9056 C   0  0  0  0  0  0  0  0  0  0  0  0
   -3.9075    1.0424  -22.0139 C   0  0  0  0  0  0  0  0  0  0  0  0
   -5.0267    0.2653  -21.8362 C   0  0  0  0  0  0  0  0  0  0  0  0
   -5.4984   -0.0155  -20.5235 C   0  0  0  0  0  0  0  0  0  0  0  0
   -5.5620   -0.1373  -22.6923 H   0  0  0  0  0  0  0  0  0  0  0  0
   -3.5410    1.2316  -23.0171 H   0  0  0  0  0  0  0  0  0  0  0  0
   -2.3374    2.1992  -21.0722 H   0  0  0  0  0  0  0  0  0  0  0  0
   -3.1444    1.7379  -18.7630 H   0  0  0  0  0  0  0  0  0  0  0  0
   -4.6850    0.5793  -17.2570 H   0  0  0  0  0  0  0  0  0  0  0  0
   -7.7871   -1.7328  -18.6627 H   0  0  0  0  0  0  0  0  0  0  0  0
   -7.7138   -2.7159  -21.4187 C   0  0  0  0  0  0  0  0  0  0  0  0
   -7.0496   -3.6186  -20.9672 O   0  0  0  0  0  0  0  0  0  0  0  0
   -8.9047   -2.7879  -22.3620 C   0  0  0  0  0  0  0  0  0  0  0  0
   -8.7546   -3.8540  -23.4586 C   0  0  0  0  0  0  0  0  0  0  0  0
  -10.0739   -4.4294  -23.1238 N   0  0  0  0  0  0  0  0  0  0  0  0
  -11.2949   -4.3962  -24.2968 S   0  0  0  0  0  0  0  0  0  0  0  0
  -12.5014   -4.8950  -23.6635 O   0  0  0  0  0  0  0  0  0  0  0  0
  -11.2976   -3.0944  -24.9442 O   0  0  0  0  0  0  0  0  0  0  0  0
  -10.6957   -5.5592  -25.5181 C   0  0  0  0  0  0  0  0  0  0  0  0
  -10.5723   -6.9019  -25.1899 C   0  0  0  0  0  0  0  0  0  0  0  0
  -10.0129   -7.7906  -26.1039 C   0  0  0  0  0  0  0  0  0  0  0  0
   -9.6080   -7.3406  -27.3549 C   0  0  0  0  0  0  0  0  0  0  0  0
   -9.7733   -6.0020  -27.7018 C   0  0  0  0  0  0  0  0  0  0  0  0
  -10.3302   -5.1158  -26.7841 C   0  0  0  0  0  0  0  0  0  0  0  0
  -10.4818   -4.0750  -27.0381 H   0  0  0  0  0  0  0  0  0  0  0  0
   -9.4421   -5.6590  -28.6820 H   0  0  0  0  0  0  0  0  0  0  0  0
   -9.1910   -8.0389  -28.0727 H   0  0  0  0  0  0  0  0  0  0  0  0
   -9.8885   -8.8376  -25.8427 H   0  0  0  0  0  0  0  0  0  0  0  0
  -10.9350   -7.2447  -24.2389 H   0  0  0  0  0  0  0  0  0  0  0  0
  -10.1651   -3.5630  -21.9019 C   0  0  0  0  0  0  0  0  0  0  0  0
   -9.9816   -4.1593  -21.0069 H   0  0  0  0  0  0  0  0  0  0  0  0
  -11.0730   -2.9670  -21.7831 H   0  0  0  0  0  0  0  0  0  0  0  0
   -8.5835   -3.4977  -24.4757 H   0  0  0  0  0  0  0  0  0  0  0  0
   -7.9731   -4.5558  -23.1592 H   0  0  0  0  0  0  0  0  0  0  0  0
   -9.9784    0.2055  -23.6589 H   0  0  0  0  0  0  0  0  0  0  0  0
  -11.0833   -1.1706  -23.4313 H   0  0  0  0  0  0  0  0  0  0  0  0
   -9.8589   -1.2440  -24.6950 H   0  0  0  0  0  0  0  0  0  0  0  0
  1  2  1  0
  2  3  1  0
  3  4  2  0
  3  5  1  0
  5  6  1  0
  6  7  2  0
  7  8  1  0
  8  9  2  0
  9 10  1  0
 10 11  2  0
 11 12  1  0
 12 13  2  0
 13 14  1  0
 14 15  2  0
 14 16  1  0
 13 17  1  0
 12 18  1  0
 11 19  1  0
  9 20  1  0
  7 21  1  0
  5 22  1  0
 22 23  2  0
 22 24  1  0
 24 25  1  0
 25 26  1  0
 26 27  1  0
 27 28  2  0
 27 29  2  0
 27 30  1  0
 30 31  2  0
 31 32  1  0
 32 33  2  0
 33 34  1  0
 34 35  2  0
 35 36  1  0
 34 37  1  0
 33 38  1  0
 32 39  1  0
 31 40  1  0
 26 41  1  0
 41 42  1  0
 41 43  1  0
 25 44  1  0
 25 45  1  0
  1 46  1  0
  1 47  1  0
  1 48  1  0
 24  2  1  0
 35 30  1  0
 15  6  1  0
 41 24  1  0
 15 10  1  0
M  END
>  <cnnaffinities>  (12) 
[5.95888, 5.9609, 5.95798, 5.95191]

>  <score>  (12) 
5.95888

>  <index>  (12) 
11

>  <Smiles>  (12) 
C(N1C(=O)N(c2c(nc(c3c(c(c(c(c23)[H])[H])[H])[H])[H])[H])C(=O)C21C(N(S(=O)(=O)c1c(c(c(c(c1[H])[H])[H])[H])[H])C2([H])[H])([H])[H])([H])([H])[H]

>  <h>  (12) 
<NA>

>  <Training>  (12) 
True

>  <Success>  (12) 
True

>  <enamine_searched>  (12) 
False

>  <enamine_id>  (12) 
nan

$$$$

     RDKit          3D

 76 82  0  0  0  0  0  0  0  0999 V2000
  -12.0731   -0.1688  -24.7996 O   0  0  0  0  0  0  0  0  0  0  0  0
  -11.2350   -0.7791  -24.1479 C   0  0  0  0  0  0  0  0  0  0  0  0
  -11.6074   -1.8786  -23.1833 C   0  0  0  0  0  0  0  0  0  0  0  0
  -12.9462   -2.0405  -22.7987 C   0  0  0  0  0  0  0  0  0  0  0  0
  -13.3039   -2.8440  -21.7325 C   0  0  0  0  0  0  0  0  0  0  0  0
  -12.3032   -3.5725  -21.0988 C   0  0  0  0  0  0  0  0  0  0  0  0
  -12.6783   -4.4620  -19.5876 Cl  0  0  0  0  0  0  0  0  0  0  0  0
  -10.9877   -3.5069  -21.5327 C   0  0  0  0  0  0  0  0  0  0  0  0
  -10.5944   -2.5637  -22.4977 C   0  0  0  0  0  0  0  0  0  0  0  0
   -9.1249   -2.1887  -22.6449 C   0  0  1  0  0  0  0  0  0  0  0  0
   -8.8963   -1.3817  -23.9525 C   0  0  0  0  0  0  0  0  0  0  0  0
   -9.9189   -0.3904  -24.1196 N   0  0  0  0  0  0  0  0  0  0  0  0
   -9.6365    0.9742  -24.5086 C   0  0  0  0  0  0  0  0  0  0  0  0
   -8.9516    1.9198  -23.5197 C   0  0  0  0  0  0  0  0  0  0  0  0
   -9.8081    3.1032  -23.2360 N   0  0  0  0  0  4  0  0  0  0  0  0
  -10.1954    3.9930  -24.3860 C   0  0  0  0  0  0  0  0  0  0  0  0
  -10.6157    5.3322  -23.7505 C   0  0  0  0  0  0  0  0  0  0  0  0
  -10.8941    5.1694  -22.3648 O   0  0  0  0  0  0  0  0  0  0  0  0
  -11.7775    4.0928  -22.1334 C   0  0  0  0  0  0  0  0  0  0  0  0
  -11.0724    2.7767  -22.4972 C   0  0  0  0  0  0  0  0  0  0  0  0
  -10.7911    2.1998  -21.6187 H   0  0  0  0  0  0  0  0  0  0  0  0
  -11.7233    2.1712  -23.1267 H   0  0  0  0  0  0  0  0  0  0  0  0
  -12.0324    4.1016  -21.0722 H   0  0  0  0  0  0  0  0  0  0  0  0
  -12.7018    4.2156  -22.7152 H   0  0  0  0  0  0  0  0  0  0  0  0
   -9.7962    6.0544  -23.7912 H   0  0  0  0  0  0  0  0  0  0  0  0
  -11.4902    5.7611  -24.2590 H   0  0  0  0  0  0  0  0  0  0  0  0
   -9.3648    4.1131  -25.0837 H   0  0  0  0  0  0  0  0  0  0  0  0
  -11.0232    3.5351  -24.9385 H   0  0  0  0  0  0  0  0  0  0  0  0
   -9.2938    3.7156  -22.5856 H   0  0  0  0  0  0  0  0  0  0  0  0
   -8.7257    1.4210  -22.5761 H   0  0  0  0  0  0  0  0  0  0  0  0
   -8.0086    2.2840  -23.9348 H   0  0  0  0  0  0  0  0  0  0  0  0
   -9.1697    1.0258  -25.4980 H   0  0  0  0  0  0  0  0  0  0  0  0
  -10.6343    1.3576  -24.5770 H   0  0  0  0  0  0  0  0  0  0  0  0
   -7.9235   -0.8799  -23.9499 H   0  0  0  0  0  0  0  0  0  0  0  0
   -8.9171   -2.0839  -24.7945 H   0  0  0  0  0  0  0  0  0  0  0  0
   -8.6066   -1.2982  -21.5001 C   0  0  0  0  0  0  0  0  0  0  0  0
   -9.1918   -0.4025  -20.9185 O   0  0  0  0  0  0  0  0  0  0  0  0
   -7.2867   -1.6053  -21.2770 N   0  0  0  0  0  0  0  0  0  0  0  0
   -6.5777   -0.9603  -20.2432 C   0  0  0  0  0  0  0  0  0  0  0  0
   -6.9716   -1.1378  -18.9423 C   0  0  0  0  0  0  0  0  0  0  0  0
   -6.3096   -0.6321  -17.8754 N   0  0  0  0  0  0  0  0  0  0  0  0
   -5.2631    0.1233  -18.1124 C   0  0  0  0  0  0  0  0  0  0  0  0
   -4.7836    0.4344  -19.4186 C   0  0  0  0  0  0  0  0  0  0  0  0
   -3.6758    1.2935  -19.6404 C   0  0  0  0  0  0  0  0  0  0  0  0
   -3.2821    1.5978  -20.9149 C   0  0  0  0  0  0  0  0  0  0  0  0
   -3.9671    1.0651  -22.0278 C   0  0  0  0  0  0  0  0  0  0  0  0
   -5.0375    0.2259  -21.8402 C   0  0  0  0  0  0  0  0  0  0  0  0
   -5.4621   -0.1142  -20.5285 C   0  0  0  0  0  0  0  0  0  0  0  0
   -5.5829   -0.1619  -22.6951 H   0  0  0  0  0  0  0  0  0  0  0  0
   -3.6503    1.3240  -23.0338 H   0  0  0  0  0  0  0  0  0  0  0  0
   -2.4365    2.2562  -21.0845 H   0  0  0  0  0  0  0  0  0  0  0  0
   -3.1611    1.7089  -18.7791 H   0  0  0  0  0  0  0  0  0  0  0  0
   -4.7452    0.5410  -17.2475 H   0  0  0  0  0  0  0  0  0  0  0  0
   -7.8528   -1.7378  -18.7199 H   0  0  0  0  0  0  0  0  0  0  0  0
   -6.8131   -2.7290  -22.0680 C   0  0  0  0  0  0  0  0  0  0  0  0
   -8.1253   -3.3732  -22.5415 C   0  0  2  0  0  0  0  0  0  0  0  0
   -7.9926   -4.1945  -23.8153 C   0  0  0  0  0  0  0  0  0  0  0  0
   -7.1509   -5.3595  -23.6685 N   0  0  0  0  0  0  0  0  0  0  0  0
   -6.8331   -6.0934  -24.7626 C   0  0  0  0  0  0  0  0  0  0  0  0
   -5.9726   -7.1159  -24.5918 N   0  0  0  0  0  0  0  0  0  0  0  0
   -5.7090   -7.8275  -25.6789 C   0  0  0  0  0  0  0  0  0  0  0  0
   -6.2623   -7.5599  -26.9278 C   0  0  0  0  0  0  0  0  0  0  0  0
   -7.1272   -6.4777  -26.9809 C   0  0  0  0  0  0  0  0  0  0  0  0
   -7.4106   -5.7275  -25.9212 N   0  0  0  0  0  0  0  0  0  0  0  0
   -7.6134   -6.1906  -27.9136 H   0  0  0  0  0  0  0  0  0  0  0  0
   -6.0456   -8.1690  -27.7960 H   0  0  0  0  0  0  0  0  0  0  0  0
   -5.0176   -8.6589  -25.5426 H   0  0  0  0  0  0  0  0  0  0  0  0
   -6.7008   -5.6058  -22.8029 H   0  0  0  0  0  0  0  0  0  0  0  0
   -7.5602   -3.5876  -24.6220 H   0  0  0  0  0  0  0  0  0  0  0  0
   -8.9856   -4.5139  -24.1551 H   0  0  0  0  0  0  0  0  0  0  0  0
   -8.4641   -4.0302  -21.7345 H   0  0  0  0  0  0  0  0  0  0  0  0
   -6.1960   -3.3875  -21.4503 H   0  0  0  0  0  0  0  0  0  0  0  0
   -6.2085   -2.4041  -22.9301 H   0  0  0  0  0  0  0  0  0  0  0  0
  -10.2526   -4.1024  -21.0028 H   0  0  0  0  0  0  0  0  0  0  0  0
  -14.3313   -2.8857  -21.3895 H   0  0  0  0  0  0  0  0  0  0  0  0
  -13.7103   -1.4232  -23.2567 H   0  0  0  0  0  0  0  0  0  0  0  0
  1  2  2  0
  2  3  1  0
  3  4  2  0
  4  5  1  0
  5  6  2  0
  6  7  1  0
  6  8  1  0
  8  9  2  0
  9 10  1  0
 10 11  1  6
 11 12  1  0
 12 13  1  0
 13 14  1  0
 14 15  1  0
 15 16  1  0
 16 17  1  0
 17 18  1  0
 18 19  1  0
 19 20  1  0
 20 21  1  0
 20 22  1  0
 19 23  1  0
 19 24  1  0
 17 25  1  0
 17 26  1  0
 16 27  1  0
 16 28  1  0
 15 29  1  0
 14 30  1  0
 14 31  1  0
 13 32  1  0
 13 33  1  0
 11 34  1  0
 11 35  1  0
 10 36  1  0
 36 37  2  0
 36 38  1  0
 38 39  1  0
 39 40  2  0
 40 41  1  0
 41 42  2  0
 42 43  1  0
 43 44  2  0
 44 45  1  0
 45 46  2  0
 46 47  1  0
 47 48  2  0
 47 49  1  0
 46 50  1  0
 45 51  1  0
 44 52  1  0
 42 53  1  0
 40 54  1  0
 38 55  1  0
 55 56  1  0
 56 57  1  0
 57 58  1  0
 58 59  1  0
 59 60  2  0
 60 61  1  0
 61 62  2  0
 62 63  1  0
 63 64  2  0
 63 65  1  0
 62 66  1  0
 61 67  1  0
 58 68  1  0
 57 69  1  0
 57 70  1  0
 56 71  1  1
 55 72  1  0
 55 73  1  0
  8 74  1  0
  5 75  1  0
  4 76  1  0
 12  2  1  0
 20 15  1  0
 48 39  1  0
 64 59  1  0
  9  3  1  0
 56 10  1  0
 48 43  1  0
M  CHG  1  15   1
M  END
>  <cnnaffinities>  (13) 
[6.73101]

>  <score>  (13) 
6.73101

>  <index>  (13) 
12

>  <Smiles>  (13) 
O=C1c2c(c(c(Cl)c(c2[C@@]2(C(N1C(C([N+]1(C(C(OC(C1([H])[H])([H])[H])([H])[H])([H])[H])[H])([H])[H])([H])[H])([H])[H])C(=O)N(c1c(nc(c3c(c(c(c(c13)[H])[H])[H])[H])[H])[H])C([C@@]2(C(N(c1nc(c(c(n1)[H])[H])[H])[H])([H])[H])[H])([H])[H])[H])[H])[H]

>  <h>  (13) 
<NA>

>  <Training>  (13) 
True

>  <Success>  (13) 
True

>  <enamine_searched>  (13) 
False

>  <enamine_id>  (13) 
nan

$$$$

     RDKit          3D

 69 74  0  0  0  0  0  0  0  0999 V2000
   -7.0566    3.1769  -22.0729 C   0  0  0  0  0  0  0  0  0  0  0  0
   -7.6331    2.6046  -23.2731 N   0  0  0  0  0  0  0  0  0  0  0  0
   -6.8204    1.9008  -24.0942 C   0  0  0  0  0  0  0  0  0  0  0  0
   -5.5979    1.9444  -24.0178 O   0  0  0  0  0  0  0  0  0  0  0  0
   -7.5230    1.0066  -25.1179 C   0  0  0  0  0  0  0  0  0  0  0  0
   -8.2382   -0.0753  -24.4550 N   0  0  0  0  0  0  0  0  0  0  0  0
   -7.5519   -1.3003  -24.0776 C   0  0  0  0  0  0  0  0  0  0  0  0
   -8.1085   -1.9647  -22.7593 C   0  0  2  0  0  0  0  0  0  0  0  0
   -7.6843   -1.1371  -21.5390 C   0  0  0  0  0  0  0  0  0  0  0  0
   -8.1909   -0.1117  -21.1270 O   0  0  0  0  0  0  0  0  0  0  0  0
   -6.5961   -1.7511  -20.9642 N   0  0  0  0  0  0  0  0  0  0  0  0
   -5.9192   -1.0584  -19.9408 C   0  0  0  0  0  0  0  0  0  0  0  0
   -6.2579   -1.3112  -18.6397 C   0  0  0  0  0  0  0  0  0  0  0  0
   -5.7192   -0.6791  -17.5732 N   0  0  0  0  0  0  0  0  0  0  0  0
   -4.8273    0.2507  -17.8248 C   0  0  0  0  0  0  0  0  0  0  0  0
   -4.3910    0.6119  -19.1324 C   0  0  0  0  0  0  0  0  0  0  0  0
   -3.3855    1.5891  -19.3474 C   0  0  0  0  0  0  0  0  0  0  0  0
   -2.9959    1.9267  -20.6150 C   0  0  0  0  0  0  0  0  0  0  0  0
   -3.6125    1.3186  -21.7312 C   0  0  0  0  0  0  0  0  0  0  0  0
   -4.5904    0.3706  -21.5529 C   0  0  0  0  0  0  0  0  0  0  0  0
   -4.9789   -0.0323  -20.2430 C   0  0  0  0  0  0  0  0  0  0  0  0
   -5.0790   -0.0655  -22.4202 H   0  0  0  0  0  0  0  0  0  0  0  0
   -3.3347    1.6143  -22.7366 H   0  0  0  0  0  0  0  0  0  0  0  0
   -2.2145    2.6662  -20.7725 H   0  0  0  0  0  0  0  0  0  0  0  0
   -2.9390    2.0581  -18.4770 H   0  0  0  0  0  0  0  0  0  0  0  0
   -4.3985    0.7772  -16.9723 H   0  0  0  0  0  0  0  0  0  0  0  0
   -7.0155   -2.0622  -18.4302 H   0  0  0  0  0  0  0  0  0  0  0  0
   -6.1020   -2.8887  -21.7233 C   0  0  0  0  0  0  0  0  0  0  0  0
   -7.3589   -3.3059  -22.5070 C   0  0  2  0  0  0  0  0  0  0  0  0
   -7.0460   -4.0552  -23.8003 C   0  0  0  0  0  0  0  0  0  0  0  0
   -6.5607   -5.4089  -23.6439 N   0  0  0  0  0  0  0  0  0  0  0  0
   -6.3769   -6.1350  -24.7951 C   0  0  0  0  0  0  0  0  0  0  0  0
   -5.9717   -7.4814  -24.7435 C   0  0  0  0  0  0  0  0  0  0  0  0
   -5.8051   -8.1072  -25.9564 C   0  0  0  0  0  0  0  0  0  0  0  0
   -6.0114   -7.5159  -27.1422 N   0  0  0  0  0  0  0  0  0  0  0  0
   -6.4105   -6.2481  -27.0832 C   0  0  0  0  0  0  0  0  0  0  0  0
   -6.7154   -5.5777  -28.3979 C   0  0  0  0  0  0  0  0  0  0  0  0
   -6.8930   -6.3409  -29.1612 H   0  0  0  0  0  0  0  0  0  0  0  0
   -5.8720   -4.9583  -28.7242 H   0  0  0  0  0  0  0  0  0  0  0  0
   -7.5967   -4.9362  -28.3038 H   0  0  0  0  0  0  0  0  0  0  0  0
   -6.5609   -5.5159  -25.9661 N   0  0  0  0  0  0  0  0  0  0  0  0
   -5.5028   -9.1499  -25.9914 H   0  0  0  0  0  0  0  0  0  0  0  0
   -5.7904   -7.9804  -23.7937 H   0  0  0  0  0  0  0  0  0  0  0  0
   -6.8517   -5.9445  -22.8386 H   0  0  0  0  0  0  0  0  0  0  0  0
   -6.2485   -3.5320  -24.3425 H   0  0  0  0  0  0  0  0  0  0  0  0
   -7.9245   -4.0710  -24.4633 H   0  0  0  0  0  0  0  0  0  0  0  0
   -7.9754   -3.9336  -21.8487 H   0  0  0  0  0  0  0  0  0  0  0  0
   -5.2983   -2.5895  -22.4221 H   0  0  0  0  0  0  0  0  0  0  0  0
   -5.7227   -3.6851  -21.0749 H   0  0  0  0  0  0  0  0  0  0  0  0
   -9.6187   -2.0127  -22.8251 C   0  0  0  0  0  0  0  0  0  0  0  0
  -10.4352   -2.7570  -21.9602 C   0  0  0  0  0  0  0  0  0  0  0  0
  -11.8154   -2.6856  -22.1140 C   0  0  0  0  0  0  0  0  0  0  0  0
  -12.8946   -3.3289  -20.9146 Cl  0  0  0  0  0  0  0  0  0  0  0  0
  -12.3990   -1.9770  -23.1578 C   0  0  0  0  0  0  0  0  0  0  0  0
  -11.5926   -1.1969  -23.9606 C   0  0  0  0  0  0  0  0  0  0  0  0
  -10.2473   -1.0949  -23.6691 C   0  0  0  0  0  0  0  0  0  0  0  0
   -9.5297    0.1345  -24.1129 C   0  0  0  0  0  0  0  0  0  0  0  0
  -10.0480    1.2512  -24.1420 O   0  0  0  0  0  0  0  0  0  0  0  0
  -11.9985   -0.5219  -24.7075 H   0  0  0  0  0  0  0  0  0  0  0  0
  -13.4807   -1.9561  -23.2408 H   0  0  0  0  0  0  0  0  0  0  0  0
  -10.0166   -3.3302  -21.1407 H   0  0  0  0  0  0  0  0  0  0  0  0
   -7.6603   -2.0229  -24.8952 H   0  0  0  0  0  0  0  0  0  0  0  0
   -6.4868   -1.0596  -23.9547 H   0  0  0  0  0  0  0  0  0  0  0  0
   -8.2583    1.5885  -25.6816 H   0  0  0  0  0  0  0  0  0  0  0  0
   -6.7740    0.6245  -25.8192 H   0  0  0  0  0  0  0  0  0  0  0  0
   -8.6363    2.4678  -23.3548 H   0  0  0  0  0  0  0  0  0  0  0  0
   -6.2069    3.8035  -22.3550 H   0  0  0  0  0  0  0  0  0  0  0  0
   -7.7996    3.7888  -21.5583 H   0  0  0  0  0  0  0  0  0  0  0  0
   -6.6953    2.3810  -21.4037 H   0  0  0  0  0  0  0  0  0  0  0  0
  1  2  1  0
  2  3  1  0
  3  4  2  0
  3  5  1  0
  5  6  1  0
  6  7  1  0
  8  7  1  6
  8  9  1  0
  9 10  2  0
  9 11  1  0
 11 12  1  0
 12 13  2  0
 13 14  1  0
 14 15  2  0
 15 16  1  0
 16 17  2  0
 17 18  1  0
 18 19  2  0
 19 20  1  0
 20 21  2  0
 20 22  1  0
 19 23  1  0
 18 24  1  0
 17 25  1  0
 15 26  1  0
 13 27  1  0
 11 28  1  0
 28 29  1  0
 29 30  1  0
 30 31  1  0
 31 32  1  0
 32 33  2  0
 33 34  1  0
 34 35  2  0
 35 36  1  0
 36 37  1  0
 37 38  1  0
 37 39  1  0
 37 40  1  0
 36 41  2  0
 34 42  1  0
 33 43  1  0
 31 44  1  0
 30 45  1  0
 30 46  1  0
 29 47  1  1
 28 48  1  0
 28 49  1  0
  8 50  1  0
 50 51  2  0
 51 52  1  0
 52 53  1  0
 52 54  2  0
 54 55  1  0
 55 56  2  0
 56 57  1  0
 57 58  2  0
 55 59  1  0
 54 60  1  0
 51 61  1  0
  7 62  1  0
  7 63  1  0
  5 64  1  0
  5 65  1  0
  2 66  1  0
  1 67  1  0
  1 68  1  0
  1 69  1  0
 57  6  1  0
 29  8  1  0
 41 32  1  0
 56 50  1  0
 21 12  1  0
 21 16  1  0
M  END
>  <cnnaffinities>  (14) 
[6.83355, 6.22844]

>  <score>  (14) 
6.83355

>  <index>  (14) 
13

>  <Smiles>  (14) 
C(N(C(=O)C(N1C([C@@]2(C(=O)N(c3c(nc(c4c(c(c(c(c34)[H])[H])[H])[H])[H])[H])C([C@@]2(C(N(c2c(c(nc(C([H])([H])[H])n2)[H])[H])[H])([H])[H])[H])([H])[H])c2c(c(Cl)c(c(c2C1=O)[H])[H])[H])([H])[H])([H])[H])[H])([H])([H])[H]

>  <h>  (14) 
<NA>

>  <Training>  (14) 
True

>  <Success>  (14) 
True

>  <enamine_searched>  (14) 
False

>  <enamine_id>  (14) 
nan

$$$$

     RDKit          3D

 73 78  0  0  0  0  0  0  0  0999 V2000
   -7.3557   -4.8753  -22.9613 C   0  0  0  0  0  0  0  0  0  0  0  0
   -7.5221   -3.5533  -22.2137 C   0  0  1  0  0  0  0  0  0  0  0  0
   -6.3968   -3.2101  -21.2218 C   0  0  0  0  0  0  0  0  0  0  0  0
   -6.5470   -1.7727  -21.0371 N   0  0  0  0  0  0  0  0  0  0  0  0
   -5.9964   -1.0533  -19.9460 C   0  0  0  0  0  0  0  0  0  0  0  0
   -6.3725   -1.3529  -18.6615 C   0  0  0  0  0  0  0  0  0  0  0  0
   -5.8935   -0.7436  -17.5513 N   0  0  0  0  0  0  0  0  0  0  0  0
   -4.9874    0.1902  -17.7129 C   0  0  0  0  0  0  0  0  0  0  0  0
   -4.4662    0.5757  -18.9782 C   0  0  0  0  0  0  0  0  0  0  0  0
   -3.4406    1.5548  -19.1028 C   0  0  0  0  0  0  0  0  0  0  0  0
   -2.9868    1.9285  -20.3383 C   0  0  0  0  0  0  0  0  0  0  0  0
   -3.5387    1.3432  -21.5012 C   0  0  0  0  0  0  0  0  0  0  0  0
   -4.5167    0.3869  -21.4051 C   0  0  0  0  0  0  0  0  0  0  0  0
   -5.0029   -0.0344  -20.1360 C   0  0  0  0  0  0  0  0  0  0  0  0
   -4.9464   -0.0439  -22.3054 H   0  0  0  0  0  0  0  0  0  0  0  0
   -3.1853    1.6580  -22.4799 H   0  0  0  0  0  0  0  0  0  0  0  0
   -2.2108    2.6832  -20.4318 H   0  0  0  0  0  0  0  0  0  0  0  0
   -3.0312    1.9968  -18.1973 H   0  0  0  0  0  0  0  0  0  0  0  0
   -4.6221    0.6852  -16.8140 H   0  0  0  0  0  0  0  0  0  0  0  0
   -7.1232   -2.1228  -18.4890 H   0  0  0  0  0  0  0  0  0  0  0  0
   -7.3686   -1.1999  -21.9923 C   0  0  0  0  0  0  0  0  0  0  0  0
   -7.7887   -0.0659  -21.9743 O   0  0  0  0  0  0  0  0  0  0  0  0
   -7.6417   -2.2691  -23.0812 C   0  0  1  0  0  0  0  0  0  0  0  0
   -6.5343   -2.1789  -24.1822 C   0  0  0  0  0  0  0  0  0  0  0  0
   -6.6588   -1.0168  -25.0587 N   0  0  0  0  0  0  0  0  0  0  0  0
   -5.5507   -0.0777  -25.2530 C   0  0  0  0  0  0  0  0  0  0  0  0
   -5.1561    0.1269  -26.7310 C   0  0  0  0  0  0  0  0  0  0  0  0
   -4.0098    1.0811  -26.9064 N   0  0  0  0  0  4  0  0  0  0  0  0
   -2.6745    0.4689  -26.5268 C   0  0  0  0  0  0  0  0  0  0  0  0
   -1.6267    1.5531  -26.3115 C   0  0  0  0  0  0  0  0  0  0  0  0
   -1.8657    2.6501  -27.2625 N   0  0  0  0  0  0  0  0  0  0  0  0
   -0.4985    3.5259  -27.6829 S   0  0  0  0  0  0  0  0  0  0  0  0
   -0.4977    4.7901  -26.9677 O   0  0  0  0  0  0  0  0  0  0  0  0
    0.6408    2.6256  -27.5841 O   0  0  0  0  0  0  0  0  0  0  0  0
   -0.7450    3.8450  -29.4211 C   0  0  0  0  0  0  0  0  0  0  0  0
   -1.0673    2.9104  -29.8914 H   0  0  0  0  0  0  0  0  0  0  0  0
    0.2329    4.1445  -29.8126 H   0  0  0  0  0  0  0  0  0  0  0  0
   -1.4754    4.6480  -29.5660 H   0  0  0  0  0  0  0  0  0  0  0  0
   -3.1081    3.4089  -26.9956 C   0  0  0  0  0  0  0  0  0  0  0  0
   -4.1587    2.4845  -26.3463 C   0  0  0  0  0  0  0  0  0  0  0  0
   -4.0194    2.4546  -25.2607 H   0  0  0  0  0  0  0  0  0  0  0  0
   -5.1714    2.8476  -26.5458 H   0  0  0  0  0  0  0  0  0  0  0  0
   -2.8983    4.2582  -26.3374 H   0  0  0  0  0  0  0  0  0  0  0  0
   -3.4851    3.8035  -27.9489 H   0  0  0  0  0  0  0  0  0  0  0  0
   -1.6570    1.9165  -25.2724 H   0  0  0  0  0  0  0  0  0  0  0  0
   -0.6345    1.1489  -26.5032 H   0  0  0  0  0  0  0  0  0  0  0  0
   -2.3809   -0.2063  -27.3336 H   0  0  0  0  0  0  0  0  0  0  0  0
   -2.7895   -0.1181  -25.6157 H   0  0  0  0  0  0  0  0  0  0  0  0
   -3.9376    1.2486  -27.9245 H   0  0  0  0  0  0  0  0  0  0  0  0
   -6.0151    0.4967  -27.2928 H   0  0  0  0  0  0  0  0  0  0  0  0
   -4.8710   -0.8414  -27.1706 H   0  0  0  0  0  0  0  0  0  0  0  0
   -4.6980   -0.4823  -24.6928 H   0  0  0  0  0  0  0  0  0  0  0  0
   -5.8214    0.8904  -24.8005 H   0  0  0  0  0  0  0  0  0  0  0  0
   -7.8783   -0.6932  -25.5756 C   0  0  0  0  0  0  0  0  0  0  0  0
   -8.0321    0.0072  -26.5724 O   0  0  0  0  0  0  0  0  0  0  0  0
   -9.0753   -1.1825  -24.8269 C   0  0  0  0  0  0  0  0  0  0  0  0
  -10.2819   -0.6125  -25.2109 C   0  0  0  0  0  0  0  0  0  0  0  0
  -11.4260   -0.8745  -24.5018 C   0  0  0  0  0  0  0  0  0  0  0  0
  -11.3761   -1.8271  -23.4837 C   0  0  0  0  0  0  0  0  0  0  0  0
  -12.8466   -2.2558  -22.6533 Cl  0  0  0  0  0  0  0  0  0  0  0  0
  -10.1831   -2.3984  -23.0812 C   0  0  0  0  0  0  0  0  0  0  0  0
   -8.9874   -2.0192  -23.7116 C   0  0  0  0  0  0  0  0  0  0  0  0
  -10.2240   -3.0901  -22.2471 H   0  0  0  0  0  0  0  0  0  0  0  0
  -12.3260   -0.3061  -24.7052 H   0  0  0  0  0  0  0  0  0  0  0  0
  -10.2610    0.0665  -26.0517 H   0  0  0  0  0  0  0  0  0  0  0  0
   -5.5516   -2.1535  -23.6994 H   0  0  0  0  0  0  0  0  0  0  0  0
   -6.5886   -3.0853  -24.7974 H   0  0  0  0  0  0  0  0  0  0  0  0
   -6.4920   -3.7285  -20.2639 H   0  0  0  0  0  0  0  0  0  0  0  0
   -5.4107   -3.4699  -21.6378 H   0  0  0  0  0  0  0  0  0  0  0  0
   -8.4385   -3.6123  -21.6147 H   0  0  0  0  0  0  0  0  0  0  0  0
   -8.1881   -5.0463  -23.6561 H   0  0  0  0  0  0  0  0  0  0  0  0
   -6.4294   -4.8892  -23.5482 H   0  0  0  0  0  0  0  0  0  0  0  0
   -7.3245   -5.7272  -22.2702 H   0  0  0  0  0  0  0  0  0  0  0  0
  1  2  1  0
  2  3  1  0
  3  4  1  0
  4  5  1  0
  5  6  2  0
  6  7  1  0
  7  8  2  0
  8  9  1  0
  9 10  2  0
 10 11  1  0
 11 12  2  0
 12 13  1  0
 13 14  2  0
 13 15  1  0
 12 16  1  0
 11 17  1  0
 10 18  1  0
  8 19  1  0
  6 20  1  0
  4 21  1  0
 21 22  2  0
 21 23  1  0
 23 24  1  6
 24 25  1  0
 25 26  1  0
 26 27  1  0
 27 28  1  0
 28 29  1  0
 29 30  1  0
 30 31  1  0
 31 32  1  0
 32 33  2  0
 32 34  2  0
 32 35  1  0
 35 36  1  0
 35 37  1  0
 35 38  1  0
 31 39  1  0
 39 40  1  0
 40 41  1  0
 40 42  1  0
 39 43  1  0
 39 44  1  0
 30 45  1  0
 30 46  1  0
 29 47  1  0
 29 48  1  0
 28 49  1  0
 27 50  1  0
 27 51  1  0
 26 52  1  0
 26 53  1  0
 25 54  1  0
 54 55  2  0
 54 56  1  0
 56 57  2  0
 57 58  1  0
 58 59  2  0
 59 60  1  0
 59 61  1  0
 61 62  2  0
 61 63  1  0
 58 64  1  0
 57 65  1  0
 24 66  1  0
 24 67  1  0
  3 68  1  0
  3 69  1  0
  2 70  1  1
  1 71  1  0
  1 72  1  0
  1 73  1  0
 23  2  1  0
 40 28  1  0
 62 56  1  0
 14  5  1  0
 62 23  1  0
 14  9  1  0
M  CHG  1  28   1
M  END
>  <cnnaffinities>  (15) 
[6.06202]

>  <score>  (15) 
6.06202

>  <index>  (15) 
14

>  <Smiles>  (15) 
C([C@]1(C(N(c2c(nc(c3c(c(c(c(c23)[H])[H])[H])[H])[H])[H])C(=O)[C@]21C(N(C(C([N+]1(C(C(N(S(=O)(=O)C([H])([H])[H])C(C1([H])[H])([H])[H])([H])[H])([H])[H])[H])([H])[H])([H])[H])C(=O)c1c(c(c(Cl)c(c21)[H])[H])[H])([H])[H])([H])[H])[H])([H])([H])[H]

>  <h>  (15) 
<NA>

>  <Training>  (15) 
True

>  <Success>  (15) 
True

>  <enamine_searched>  (15) 
False

>  <enamine_id>  (15) 
nan

$$$$

     RDKit          3D

 63 68  0  0  0  0  0  0  0  0999 V2000
   -9.5476   -7.9011  -24.5858 C   0  0  0  0  0  0  0  0  0  0  0  0
   -8.3990   -7.5519  -23.7614 N   0  0  0  0  0  0  0  0  0  0  0  0
   -7.2145   -7.1839  -24.3597 C   0  0  0  0  0  0  0  0  0  0  0  0
   -6.8213   -7.6605  -25.4085 O   0  0  0  0  0  0  0  0  0  0  0  0
   -6.4199   -6.1045  -23.6022 C   0  0  0  0  0  0  0  0  0  0  0  0
   -6.7771   -4.7567  -24.0080 N   0  0  0  0  0  0  0  0  0  0  0  0
   -7.9865   -4.1710  -23.4579 C   0  0  0  0  0  0  0  0  0  0  0  0
   -7.8519   -2.6556  -23.1936 C   0  0  2  0  0  0  0  0  0  0  0  0
   -6.8315   -2.3974  -22.0638 C   0  0  0  0  0  0  0  0  0  0  0  0
   -5.7343   -2.8953  -21.9453 O   0  0  0  0  0  0  0  0  0  0  0  0
   -7.3558   -1.4611  -21.2035 N   0  0  0  0  0  0  0  0  0  0  0  0
   -6.5713   -0.8565  -20.1867 C   0  0  0  0  0  0  0  0  0  0  0  0
   -6.8980   -1.0561  -18.8707 C   0  0  0  0  0  0  0  0  0  0  0  0
   -6.2091   -0.5513  -17.8192 N   0  0  0  0  0  0  0  0  0  0  0  0
   -5.1734    0.2086  -18.0846 C   0  0  0  0  0  0  0  0  0  0  0  0
   -4.7353    0.5220  -19.4032 C   0  0  0  0  0  0  0  0  0  0  0  0
   -3.6115    1.3613  -19.6341 C   0  0  0  0  0  0  0  0  0  0  0  0
   -3.2261    1.6644  -20.9101 C   0  0  0  0  0  0  0  0  0  0  0  0
   -3.9507    1.1508  -22.0108 C   0  0  0  0  0  0  0  0  0  0  0  0
   -5.0413    0.3410  -21.8180 C   0  0  0  0  0  0  0  0  0  0  0  0
   -5.4535   -0.0126  -20.4984 C   0  0  0  0  0  0  0  0  0  0  0  0
   -5.5936   -0.0372  -22.6794 H   0  0  0  0  0  0  0  0  0  0  0  0
   -3.6366    1.4021  -23.0196 H   0  0  0  0  0  0  0  0  0  0  0  0
   -2.3695    2.3084  -21.0910 H   0  0  0  0  0  0  0  0  0  0  0  0
   -3.0776    1.7626  -18.7759 H   0  0  0  0  0  0  0  0  0  0  0  0
   -4.6240    0.6157  -17.2344 H   0  0  0  0  0  0  0  0  0  0  0  0
   -7.7532   -1.6808  -18.6156 H   0  0  0  0  0  0  0  0  0  0  0  0
   -8.6884   -1.0181  -21.5504 C   0  0  0  0  0  0  0  0  0  0  0  0
   -9.1533   -1.9792  -22.6592 C   0  0  2  0  0  0  0  0  0  0  0  0
  -10.2635   -2.9027  -22.1086 C   0  0  0  0  0  0  0  0  0  0  0  0
  -10.9472   -3.6660  -23.1349 N   0  0  0  0  0  0  0  0  0  0  0  0
  -11.6242   -3.1833  -24.2012 C   0  0  0  0  0  0  0  0  0  0  0  0
  -12.1570   -4.2770  -24.8549 C   0  0  0  0  0  0  0  0  0  0  0  0
  -11.7155   -5.3705  -24.1013 C   0  0  0  0  0  0  0  0  0  0  0  0
  -10.9844   -4.9980  -23.0632 N   0  0  0  0  0  0  0  0  0  0  0  0
  -11.8771   -6.4260  -24.2709 H   0  0  0  0  0  0  0  0  0  0  0  0
  -12.7384   -4.3282  -25.7610 H   0  0  0  0  0  0  0  0  0  0  0  0
  -11.6191   -2.1220  -24.4170 H   0  0  0  0  0  0  0  0  0  0  0  0
  -11.0087   -2.2860  -21.5878 H   0  0  0  0  0  0  0  0  0  0  0  0
   -9.8701   -3.6318  -21.3981 H   0  0  0  0  0  0  0  0  0  0  0  0
   -9.6307   -1.4251  -23.4747 H   0  0  0  0  0  0  0  0  0  0  0  0
   -9.3414   -1.0763  -20.6848 H   0  0  0  0  0  0  0  0  0  0  0  0
   -8.6839    0.0298  -21.8802 H   0  0  0  0  0  0  0  0  0  0  0  0
   -7.3266   -2.0122  -24.4758 C   0  0  0  0  0  0  0  0  0  0  0  0
   -7.5228   -0.6476  -24.7338 C   0  0  0  0  0  0  0  0  0  0  0  0
   -6.9845   -0.0721  -25.8731 C   0  0  0  0  0  0  0  0  0  0  0  0
   -7.2380    1.6255  -26.1782 Cl  0  0  0  0  0  0  0  0  0  0  0  0
   -6.2330   -0.8171  -26.7791 C   0  0  0  0  0  0  0  0  0  0  0  0
   -6.0054   -2.1536  -26.5089 C   0  0  0  0  0  0  0  0  0  0  0  0
   -6.5292   -2.7497  -25.3602 C   0  0  0  0  0  0  0  0  0  0  0  0
   -6.1563   -4.1841  -25.0825 C   0  0  0  0  0  0  0  0  0  0  0  0
   -5.3226   -4.7703  -25.7608 O   0  0  0  0  0  0  0  0  0  0  0  0
   -5.4002   -2.7657  -27.1688 H   0  0  0  0  0  0  0  0  0  0  0  0
   -5.8218   -0.3362  -27.6604 H   0  0  0  0  0  0  0  0  0  0  0  0
   -8.0778   -0.0073  -24.0539 H   0  0  0  0  0  0  0  0  0  0  0  0
   -8.8232   -4.3323  -24.1465 H   0  0  0  0  0  0  0  0  0  0  0  0
   -8.2008   -4.6727  -22.5154 H   0  0  0  0  0  0  0  0  0  0  0  0
   -5.3739   -6.2517  -23.8501 H   0  0  0  0  0  0  0  0  0  0  0  0
   -6.5540   -6.1739  -22.5132 H   0  0  0  0  0  0  0  0  0  0  0  0
   -8.6383   -7.1006  -22.8918 H   0  0  0  0  0  0  0  0  0  0  0  0
  -10.1180   -6.9941  -24.8060 H   0  0  0  0  0  0  0  0  0  0  0  0
   -9.1770   -8.3432  -25.5125 H   0  0  0  0  0  0  0  0  0  0  0  0
  -10.2432   -8.5902  -24.0931 H   0  0  0  0  0  0  0  0  0  0  0  0
  1  2  1  0
  2  3  1  0
  3  4  2  0
  3  5  1  0
  5  6  1  0
  6  7  1  0
  8  7  1  6
  8  9  1  0
  9 10  2  0
  9 11  1  0
 11 12  1  0
 12 13  2  0
 13 14  1  0
 14 15  2  0
 15 16  1  0
 16 17  2  0
 17 18  1  0
 18 19  2  0
 19 20  1  0
 20 21  2  0
 20 22  1  0
 19 23  1  0
 18 24  1  0
 17 25  1  0
 15 26  1  0
 13 27  1  0
 11 28  1  0
 28 29  1  0
 29 30  1  0
 30 31  1  0
 31 32  1  0
 32 33  2  0
 33 34  1  0
 34 35  2  0
 34 36  1  0
 33 37  1  0
 32 38  1  0
 30 39  1  0
 30 40  1  0
 29 41  1  6
 28 42  1  0
 28 43  1  0
  8 44  1  0
 44 45  2  0
 45 46  1  0
 46 47  1  0
 46 48  2  0
 48 49  1  0
 49 50  2  0
 50 51  1  0
 51 52  2  0
 49 53  1  0
 48 54  1  0
 45 55  1  0
  7 56  1  0
  7 57  1  0
  5 58  1  0
  5 59  1  0
  2 60  1  0
  1 61  1  0
  1 62  1  0
  1 63  1  0
 51  6  1  0
 29  8  1  0
 35 31  1  0
 50 44  1  0
 21 12  1  0
 21 16  1  0
M  END
>  <cnnaffinities>  (16) 
[6.63663, 6.46346]

>  <score>  (16) 
6.63663

>  <index>  (16) 
15

>  <Smiles>  (16) 
C(N(C(=O)C(N1C([C@@]2(C(=O)N(c3c(nc(c4c(c(c(c(c34)[H])[H])[H])[H])[H])[H])C([C@@]2(C(n2c(c(c(n2)[H])[H])[H])([H])[H])[H])([H])[H])c2c(c(Cl)c(c(c2C1=O)[H])[H])[H])([H])[H])([H])[H])[H])([H])([H])[H]

>  <h>  (16) 
<NA>

>  <Training>  (16) 
True

>  <Success>  (16) 
True

>  <enamine_searched>  (16) 
False

>  <enamine_id>  (16) 
nan

$$$$

     RDKit          3D

 61 66  0  0  0  0  0  0  0  0999 V2000
   -5.9118   -0.0304  -29.3983 C   0  0  0  0  0  0  0  0  0  0  0  0
   -5.8202    0.3414  -28.0019 N   0  0  0  0  0  0  0  0  0  0  0  0
   -5.1626   -0.4753  -27.1304 C   0  0  0  0  0  0  0  0  0  0  0  0
   -4.4230   -1.3762  -27.4799 O   0  0  0  0  0  0  0  0  0  0  0  0
   -5.3778   -0.1412  -25.6376 C   0  0  0  0  0  0  0  0  0  0  0  0
   -6.5663   -0.7531  -25.0590 N   0  0  0  0  0  0  0  0  0  0  0  0
   -6.4570   -1.9647  -24.2388 C   0  0  0  0  0  0  0  0  0  0  0  0
   -7.5801   -2.0592  -23.1532 C   0  0  2  0  0  0  0  0  0  0  0  0
   -7.3100   -1.0344  -22.0259 C   0  0  0  0  0  0  0  0  0  0  0  0
   -7.6607    0.1221  -21.9825 O   0  0  0  0  0  0  0  0  0  0  0  0
   -6.5847   -1.6860  -21.0442 N   0  0  0  0  0  0  0  0  0  0  0  0
   -6.0305   -0.9830  -19.9548 C   0  0  0  0  0  0  0  0  0  0  0  0
   -6.4520   -1.2252  -18.6714 C   0  0  0  0  0  0  0  0  0  0  0  0
   -5.9739   -0.5871  -17.5756 N   0  0  0  0  0  0  0  0  0  0  0  0
   -5.0238    0.2980  -17.7591 C   0  0  0  0  0  0  0  0  0  0  0  0
   -4.4645    0.6107  -19.0303 C   0  0  0  0  0  0  0  0  0  0  0  0
   -3.3997    1.5394  -19.1756 C   0  0  0  0  0  0  0  0  0  0  0  0
   -2.9145    1.8475  -20.4168 C   0  0  0  0  0  0  0  0  0  0  0  0
   -3.4634    1.2407  -21.5715 C   0  0  0  0  0  0  0  0  0  0  0  0
   -4.4712    0.3212  -21.4516 C   0  0  0  0  0  0  0  0  0  0  0  0
   -4.9974   -0.0204  -20.1728 C   0  0  0  0  0  0  0  0  0  0  0  0
   -4.8815   -0.1529  -22.3382 H   0  0  0  0  0  0  0  0  0  0  0  0
   -3.0903    1.5047  -22.5578 H   0  0  0  0  0  0  0  0  0  0  0  0
   -2.1147    2.5735  -20.5284 H   0  0  0  0  0  0  0  0  0  0  0  0
   -2.9877    1.9968  -18.2793 H   0  0  0  0  0  0  0  0  0  0  0  0
   -4.6466    0.8160  -16.8764 H   0  0  0  0  0  0  0  0  0  0  0  0
   -7.2435   -1.9542  -18.4995 H   0  0  0  0  0  0  0  0  0  0  0  0
   -6.3744   -3.1057  -21.3133 C   0  0  0  0  0  0  0  0  0  0  0  0
   -7.5017   -3.3665  -22.3177 C   0  0  2  0  0  0  0  0  0  0  0  0
   -7.5315   -4.6811  -23.0905 C   0  0  0  0  0  0  0  0  0  0  0  0
   -6.3395   -5.1029  -23.8228 N   0  0  0  0  0  0  0  0  0  0  0  0
   -5.2631   -5.6126  -23.2341 N   0  0  0  0  0  0  0  0  0  0  0  0
   -4.6766   -6.2234  -24.2483 C   0  0  0  0  0  0  0  0  0  0  0  0
   -5.3632   -6.0990  -25.4019 N   0  0  0  0  0  0  0  0  0  0  0  0
   -6.4223   -5.4053  -25.1065 N   0  0  0  0  0  0  0  0  0  0  0  0
   -3.7793   -6.8212  -24.1555 H   0  0  0  0  0  0  0  0  0  0  0  0
   -7.7959   -5.5017  -22.4199 H   0  0  0  0  0  0  0  0  0  0  0  0
   -8.3093   -4.6048  -23.8550 H   0  0  0  0  0  0  0  0  0  0  0  0
   -8.4158   -3.3840  -21.7102 H   0  0  0  0  0  0  0  0  0  0  0  0
   -5.3870   -3.3024  -21.7589 H   0  0  0  0  0  0  0  0  0  0  0  0
   -6.4583   -3.6678  -20.3776 H   0  0  0  0  0  0  0  0  0  0  0  0
   -8.9130   -1.7716  -23.7958 C   0  0  0  0  0  0  0  0  0  0  0  0
  -10.1312   -2.1780  -23.2312 C   0  0  0  0  0  0  0  0  0  0  0  0
  -11.3304   -1.6828  -23.7187 C   0  0  0  0  0  0  0  0  0  0  0  0
  -12.8241   -2.0929  -22.9141 Cl  0  0  0  0  0  0  0  0  0  0  0  0
  -11.3679   -0.8274  -24.8250 C   0  0  0  0  0  0  0  0  0  0  0  0
  -10.1820   -0.4952  -25.4279 C   0  0  0  0  0  0  0  0  0  0  0  0
   -8.9722   -0.8997  -24.8837 C   0  0  0  0  0  0  0  0  0  0  0  0
   -7.7628   -0.2630  -25.4552 C   0  0  0  0  0  0  0  0  0  0  0  0
   -7.8659    0.6836  -26.2468 O   0  0  0  0  0  0  0  0  0  0  0  0
  -10.1415    0.1093  -26.3212 H   0  0  0  0  0  0  0  0  0  0  0  0
  -12.2757   -0.3693  -25.1969 H   0  0  0  0  0  0  0  0  0  0  0  0
  -10.1679   -2.8796  -22.4063 H   0  0  0  0  0  0  0  0  0  0  0  0
   -5.4911   -1.9683  -23.7197 H   0  0  0  0  0  0  0  0  0  0  0  0
   -6.4848   -2.8451  -24.8872 H   0  0  0  0  0  0  0  0  0  0  0  0
   -5.4672    0.9439  -25.5093 H   0  0  0  0  0  0  0  0  0  0  0  0
   -4.5110   -0.5099  -25.0848 H   0  0  0  0  0  0  0  0  0  0  0  0
   -6.6292    0.8051  -27.5998 H   0  0  0  0  0  0  0  0  0  0  0  0
   -6.3684    0.7980  -29.9467 H   0  0  0  0  0  0  0  0  0  0  0  0
   -6.5125   -0.9401  -29.5398 H   0  0  0  0  0  0  0  0  0  0  0  0
   -4.9097   -0.1966  -29.8009 H   0  0  0  0  0  0  0  0  0  0  0  0
  1  2  1  0
  2  3  1  0
  3  4  2  0
  3  5  1  0
  5  6  1  0
  6  7  1  0
  8  7  1  6
  8  9  1  0
  9 10  2  0
  9 11  1  0
 11 12  1  0
 12 13  2  0
 13 14  1  0
 14 15  2  0
 15 16  1  0
 16 17  2  0
 17 18  1  0
 18 19  2  0
 19 20  1  0
 20 21  2  0
 20 22  1  0
 19 23  1  0
 18 24  1  0
 17 25  1  0
 15 26  1  0
 13 27  1  0
 11 28  1  0
 28 29  1  0
 29 30  1  0
 30 31  1  0
 31 32  1  0
 32 33  2  0
 33 34  1  0
 34 35  2  0
 33 36  1  0
 30 37  1  0
 30 38  1  0
 29 39  1  1
 28 40  1  0
 28 41  1  0
  8 42  1  0
 42 43  2  0
 43 44  1  0
 44 45  1  0
 44 46  2  0
 46 47  1  0
 47 48  2  0
 48 49  1  0
 49 50  2  0
 47 51  1  0
 46 52  1  0
 43 53  1  0
  7 54  1  0
  7 55  1  0
  5 56  1  0
  5 57  1  0
  2 58  1  0
  1 59  1  0
  1 60  1  0
  1 61  1  0
 49  6  1  0
 29  8  1  0
 35 31  1  0
 48 42  1  0
 21 12  1  0
 21 16  1  0
M  END
>  <cnnaffinities>  (17) 
[6.35378, 6.0593, 6.15395]

>  <score>  (17) 
6.35378

>  <index>  (17) 
16

>  <Smiles>  (17) 
C(N(C(=O)C(N1C([C@@]2(C(=O)N(c3c(nc(c4c(c(c(c(c34)[H])[H])[H])[H])[H])[H])C([C@@]2(C(n2nc(nn2)[H])([H])[H])[H])([H])[H])c2c(c(Cl)c(c(c2C1=O)[H])[H])[H])([H])[H])([H])[H])[H])([H])([H])[H]

>  <h>  (17) 
<NA>

>  <Training>  (17) 
True

>  <Success>  (17) 
True

>  <enamine_searched>  (17) 
False

>  <enamine_id>  (17) 
nan

$$$$

     RDKit          3D

 38 41  0  0  0  0  0  0  0  0999 V2000
   -9.3481   -4.9449  -25.6906 C   0  0  0  0  0  0  0  0  0  0  0  0
   -9.3465   -4.1963  -24.3581 C   0  0  2  0  0  0  0  0  0  0  0  0
  -10.3485   -3.0428  -24.3821 C   0  0  0  0  0  0  0  0  0  0  0  0
  -10.4197   -2.3549  -23.0171 C   0  0  0  0  0  0  0  0  0  0  0  0
   -9.0741   -2.1282  -22.4759 C   0  0  0  0  0  0  0  0  0  0  0  0
   -8.6943   -1.2295  -21.4393 C   0  0  0  0  0  0  0  0  0  0  0  0
   -9.3453   -0.3883  -20.8768 O   0  0  0  0  0  1  0  0  0  0  0  0
   -7.3233   -1.4863  -21.2086 N   0  0  0  0  0  0  0  0  0  0  0  0
   -6.5674   -0.8473  -20.1874 C   0  0  0  0  0  0  0  0  0  0  0  0
   -6.8883   -1.0549  -18.8701 C   0  0  0  0  0  0  0  0  0  0  0  0
   -6.1895   -0.5553  -17.8199 N   0  0  0  0  0  0  0  0  0  0  0  0
   -5.1593    0.2116  -18.0768 C   0  0  0  0  0  0  0  0  0  0  0  0
   -4.7269    0.5342  -19.3911 C   0  0  0  0  0  0  0  0  0  0  0  0
   -3.5999    1.3678  -19.6269 C   0  0  0  0  0  0  0  0  0  0  0  0
   -3.2212    1.6692  -20.9065 C   0  0  0  0  0  0  0  0  0  0  0  0
   -3.9527    1.1574  -22.0011 C   0  0  0  0  0  0  0  0  0  0  0  0
   -5.0467    0.3544  -21.7985 C   0  0  0  0  0  0  0  0  0  0  0  0
   -5.4544    0.0046  -20.4850 C   0  0  0  0  0  0  0  0  0  0  0  0
   -5.6070   -0.0298  -22.6438 H   0  0  0  0  0  0  0  0  0  0  0  0
   -3.6514    1.4064  -23.0146 H   0  0  0  0  0  0  0  0  0  0  0  0
   -2.3665    2.3151  -21.0952 H   0  0  0  0  0  0  0  0  0  0  0  0
   -3.0597    1.7720  -18.7742 H   0  0  0  0  0  0  0  0  0  0  0  0
   -4.6125    0.6186  -17.2220 H   0  0  0  0  0  0  0  0  0  0  0  0
   -7.7406   -1.6725  -18.5983 H   0  0  0  0  0  0  0  0  0  0  0  0
   -6.8498   -2.4310  -22.1281 C   0  0  0  0  0  0  0  0  0  0  0  0
   -5.7157   -2.8301  -22.2460 O   0  0  0  0  0  0  0  0  0  0  0  0
   -7.9667   -2.7927  -22.8735 N   0  0  0  0  0  0  0  0  0  0  0  0
   -7.9439   -3.6866  -24.0139 C   0  0  0  0  0  0  0  0  0  0  0  0
   -7.2759   -4.5023  -23.7592 H   0  0  0  0  0  0  0  0  0  0  0  0
   -7.5084   -3.1780  -24.8774 H   0  0  0  0  0  0  0  0  0  0  0  0
  -10.9609   -1.4045  -23.0786 H   0  0  0  0  0  0  0  0  0  0  0  0
  -11.0040   -2.9648  -22.3104 H   0  0  0  0  0  0  0  0  0  0  0  0
  -10.0335   -2.3168  -25.1406 H   0  0  0  0  0  0  0  0  0  0  0  0
  -11.3417   -3.4066  -24.6775 H   0  0  0  0  0  0  0  0  0  0  0  0
   -9.6526   -4.9009  -23.5739 H   0  0  0  0  0  0  0  0  0  0  0  0
  -10.3421   -5.3468  -25.9213 H   0  0  0  0  0  0  0  0  0  0  0  0
   -8.6476   -5.7874  -25.6927 H   0  0  0  0  0  0  0  0  0  0  0  0
   -9.0723   -4.2814  -26.5199 H   0  0  0  0  0  0  0  0  0  0  0  0
  1  2  1  0
  2  3  1  0
  3  4  1  0
  4  5  1  0
  5  6  2  0
  6  7  1  0
  6  8  1  0
  8  9  1  0
  9 10  2  0
 10 11  1  0
 11 12  2  0
 12 13  1  0
 13 14  2  0
 14 15  1  0
 15 16  2  0
 16 17  1  0
 17 18  2  0
 17 19  1  0
 16 20  1  0
 15 21  1  0
 14 22  1  0
 12 23  1  0
 10 24  1  0
  8 25  1  0
 25 26  2  0
 25 27  1  0
 27 28  1  0
 28 29  1  0
 28 30  1  0
  4 31  1  0
  4 32  1  0
  3 33  1  0
  3 34  1  0
  2 35  1  1
  1 36  1  0
  1 37  1  0
  1 38  1  0
 28  2  1  0
 27  5  1  0
 18  9  1  0
 18 13  1  0
M  CHG  1   7  -1
M  END
>  <cnnaffinities>  (18) 
[5.59526, 5.60244, 5.2745, 5.02982, 5.08741, 5.60241, 5.57656]

>  <score>  (18) 
5.59526

>  <index>  (18) 
17

>  <Smiles>  (18) 
C([C@@]1(C(C(c2c([O-])n(c3c(nc(c4c(c(c(c(c34)[H])[H])[H])[H])[H])[H])c(=O)n2C1([H])[H])([H])[H])([H])[H])[H])([H])([H])[H]

>  <h>  (18) 
<NA>

>  <Training>  (18) 
True

>  <Success>  (18) 
True

>  <enamine_searched>  (18) 
False

>  <enamine_id>  (18) 
nan

$$$$

     RDKit          3D

 56 61  0  0  0  0  0  0  0  0999 V2000
  -10.2420   -2.9010  -22.0961 C   0  0  0  0  0  0  0  0  0  0  0  0
   -9.1471   -1.9769  -22.6466 C   0  0  1  0  0  0  0  0  0  0  0  0
   -8.6821   -0.9726  -21.5735 C   0  0  0  0  0  0  0  0  0  0  0  0
   -7.3697   -1.4355  -21.1915 N   0  0  0  0  0  0  0  0  0  0  0  0
   -6.5903   -0.8349  -20.1844 C   0  0  0  0  0  0  0  0  0  0  0  0
   -6.9202   -1.0518  -18.8746 C   0  0  0  0  0  0  0  0  0  0  0  0
   -6.2329   -0.5583  -17.8200 N   0  0  0  0  0  0  0  0  0  0  0  0
   -5.1942    0.1963  -18.0924 C   0  0  0  0  0  0  0  0  0  0  0  0
   -4.7522    0.5064  -19.4107 C   0  0  0  0  0  0  0  0  0  0  0  0
   -3.6274    1.3405  -19.6328 C   0  0  0  0  0  0  0  0  0  0  0  0
   -3.2322    1.6443  -20.9047 C   0  0  0  0  0  0  0  0  0  0  0  0
   -3.9442    1.1325  -22.0143 C   0  0  0  0  0  0  0  0  0  0  0  0
   -5.0371    0.3220  -21.8330 C   0  0  0  0  0  0  0  0  0  0  0  0
   -5.4641   -0.0187  -20.5109 C   0  0  0  0  0  0  0  0  0  0  0  0
   -5.5755   -0.0546  -22.7050 H   0  0  0  0  0  0  0  0  0  0  0  0
   -3.6204    1.3972  -23.0175 H   0  0  0  0  0  0  0  0  0  0  0  0
   -2.3801    2.2962  -21.0718 H   0  0  0  0  0  0  0  0  0  0  0  0
   -3.1066    1.7415  -18.7676 H   0  0  0  0  0  0  0  0  0  0  0  0
   -4.6418    0.6089  -17.2481 H   0  0  0  0  0  0  0  0  0  0  0  0
   -7.7785   -1.6833  -18.6481 H   0  0  0  0  0  0  0  0  0  0  0  0
   -6.8483   -2.4319  -21.9768 C   0  0  0  0  0  0  0  0  0  0  0  0
   -5.7882   -2.9851  -21.7643 O   0  0  0  0  0  0  0  0  0  0  0  0
   -7.8412   -2.6896  -23.1269 C   0  0  1  0  0  0  0  0  0  0  0  0
   -7.9909   -4.2053  -23.2982 C   0  0  0  0  0  0  0  0  0  0  0  0
   -6.7436   -4.7696  -23.7968 N   0  0  0  0  0  0  0  0  0  0  0  0
   -6.3859   -6.1096  -23.3419 C   0  0  0  0  0  0  0  0  0  0  0  0
   -7.3352   -7.1216  -23.9215 C   0  0  0  0  0  0  0  0  0  0  0  0
   -7.4747   -7.5098  -25.2724 C   0  0  0  0  0  0  0  0  0  0  0  0
   -8.6499   -8.2025  -25.3159 C   0  0  0  0  0  0  0  0  0  0  0  0
   -9.1435   -8.2190  -24.0551 N   0  0  0  0  0  0  0  0  0  0  0  0
   -8.3506   -7.5598  -23.1916 N   0  0  0  0  0  0  0  0  0  0  0  0
   -9.9991   -8.6331  -23.7186 H   0  0  0  0  0  0  0  0  0  0  0  0
   -9.1147   -8.6866  -26.1577 H   0  0  0  0  0  0  0  0  0  0  0  0
   -6.8107   -7.3025  -26.0945 H   0  0  0  0  0  0  0  0  0  0  0  0
   -5.3527   -6.2898  -23.6510 H   0  0  0  0  0  0  0  0  0  0  0  0
   -6.4532   -6.1306  -22.2450 H   0  0  0  0  0  0  0  0  0  0  0  0
   -6.2312   -4.3310  -24.9918 C   0  0  0  0  0  0  0  0  0  0  0  0
   -5.5180   -5.0237  -25.7096 O   0  0  0  0  0  0  0  0  0  0  0  0
   -6.5729   -2.9173  -25.3303 C   0  0  0  0  0  0  0  0  0  0  0  0
   -6.1092   -2.4132  -26.5436 C   0  0  0  0  0  0  0  0  0  0  0  0
   -6.2994   -1.0891  -26.8746 C   0  0  0  0  0  0  0  0  0  0  0  0
   -6.9669   -0.2861  -25.9579 C   0  0  0  0  0  0  0  0  0  0  0  0
   -7.1428    1.0106  -26.2653 F   0  0  0  0  0  0  0  0  0  0  0  0
   -7.4616   -0.7676  -24.7600 C   0  0  0  0  0  0  0  0  0  0  0  0
   -7.2939   -2.1189  -24.4344 C   0  0  0  0  0  0  0  0  0  0  0  0
   -7.9934   -0.0814  -24.1095 H   0  0  0  0  0  0  0  0  0  0  0  0
   -5.9279   -0.6754  -27.8039 H   0  0  0  0  0  0  0  0  0  0  0  0
   -5.5908   -3.0969  -27.2046 H   0  0  0  0  0  0  0  0  0  0  0  0
   -8.2129   -4.6679  -22.3359 H   0  0  0  0  0  0  0  0  0  0  0  0
   -8.8305   -4.4164  -23.9809 H   0  0  0  0  0  0  0  0  0  0  0  0
   -8.6501    0.0597  -21.9477 H   0  0  0  0  0  0  0  0  0  0  0  0
   -9.3469   -0.9703  -20.7120 H   0  0  0  0  0  0  0  0  0  0  0  0
   -9.5951   -1.4468  -23.4938 H   0  0  0  0  0  0  0  0  0  0  0  0
   -9.8852   -3.4963  -21.2479 H   0  0  0  0  0  0  0  0  0  0  0  0
  -10.6094   -3.5824  -22.8697 H   0  0  0  0  0  0  0  0  0  0  0  0
  -11.0935   -2.3036  -21.7538 H   0  0  0  0  0  0  0  0  0  0  0  0
  1  2  1  0
  2  3  1  0
  3  4  1  0
  4  5  1  0
  5  6  2  0
  6  7  1  0
  7  8  2  0
  8  9  1  0
  9 10  2  0
 10 11  1  0
 11 12  2  0
 12 13  1  0
 13 14  2  0
 13 15  1  0
 12 16  1  0
 11 17  1  0
 10 18  1  0
  8 19  1  0
  6 20  1  0
  4 21  1  0
 21 22  2  0
 21 23  1  0
 23 24  1  6
 24 25  1  0
 25 26  1  0
 26 27  1  0
 27 28  1  0
 28 29  2  0
 29 30  1  0
 30 31  1  0
 30 32  1  0
 29 33  1  0
 28 34  1  0
 26 35  1  0
 26 36  1  0
 25 37  1  0
 37 38  2  0
 37 39  1  0
 39 40  2  0
 40 41  1  0
 41 42  2  0
 42 43  1  0
 42 44  1  0
 44 45  2  0
 44 46  1  0
 41 47  1  0
 40 48  1  0
 24 49  1  0
 24 50  1  0
  3 51  1  0
  3 52  1  0
  2 53  1  6
  1 54  1  0
  1 55  1  0
  1 56  1  0
 23  2  1  0
 31 27  2  0
 45 39  1  0
 14  5  1  0
 45 23  1  0
 14  9  1  0
M  END
>  <cnnaffinities>  (19) 
[6.36033]

>  <score>  (19) 
6.36033

>  <index>  (19) 
18

>  <Smiles>  (19) 
C([C@]1(C(N(c2c(nc(c3c(c(c(c(c23)[H])[H])[H])[H])[H])[H])C(=O)[C@]21C(N(C(c1c(c(n(n1)[H])[H])[H])([H])[H])C(=O)c1c(c(c(F)c(c21)[H])[H])[H])([H])[H])([H])[H])[H])([H])([H])[H]

>  <h>  (19) 
<NA>

>  <Training>  (19) 
True

>  <Success>  (19) 
True

>  <enamine_searched>  (19) 
False

>  <enamine_id>  (19) 
nan

$$$$

     RDKit          3D

 42 45  0  0  0  0  0  0  0  0999 V2000
   -8.4632    0.5860  -21.5813 O   0  0  0  0  0  0  0  0  0  0  0  0
   -8.2323   -0.5450  -21.9547 C   0  0  0  0  0  0  0  0  0  0  0  0
   -8.7648   -1.1089  -23.2791 C   0  0  1  0  0  0  0  0  0  0  0  0
   -7.7645   -0.8687  -24.4022 C   0  0  0  0  0  0  0  0  0  0  0  0
   -6.9981   -1.8789  -24.9771 C   0  0  0  0  0  0  0  0  0  0  0  0
   -6.0607   -1.5945  -25.9601 C   0  0  0  0  0  0  0  0  0  0  0  0
   -5.8766   -0.2914  -26.4019 C   0  0  0  0  0  0  0  0  0  0  0  0
   -4.6883    0.0229  -27.6200 Cl  0  0  0  0  0  0  0  0  0  0  0  0
   -6.6531    0.7289  -25.8513 C   0  0  0  0  0  0  0  0  0  0  0  0
   -6.4553    2.3707  -26.3660 Cl  0  0  0  0  0  0  0  0  0  0  0  0
   -7.5888    0.4349  -24.8666 C   0  0  0  0  0  0  0  0  0  0  0  0
   -8.1738    1.2504  -24.4540 H   0  0  0  0  0  0  0  0  0  0  0  0
   -5.4627   -2.3894  -26.3875 H   0  0  0  0  0  0  0  0  0  0  0  0
   -7.1166   -2.9106  -24.6672 H   0  0  0  0  0  0  0  0  0  0  0  0
   -9.2394   -2.5525  -23.1307 C   0  0  0  0  0  0  0  0  0  0  0  0
   -8.4130   -3.4284  -22.1841 C   0  0  2  0  0  0  0  0  0  0  0  0
   -9.2735   -3.8623  -21.1515 O   0  0  0  0  0  0  0  0  0  0  0  0
   -9.4302   -3.0992  -20.5750 H   0  0  0  0  0  0  0  0  0  0  0  0
   -7.1440   -2.7424  -21.6733 C   0  0  0  0  0  0  0  0  0  0  0  0
   -7.4287   -1.3911  -21.2117 N   0  0  0  0  0  0  0  0  0  0  0  0
   -6.6095   -0.8087  -20.1861 C   0  0  0  0  0  0  0  0  0  0  0  0
   -6.8891   -1.0486  -18.8672 C   0  0  0  0  0  0  0  0  0  0  0  0
   -6.1878   -0.5546  -17.8147 N   0  0  0  0  0  0  0  0  0  0  0  0
   -5.1610    0.2186  -18.0727 C   0  0  0  0  0  0  0  0  0  0  0  0
   -4.7277    0.5323  -19.3923 C   0  0  0  0  0  0  0  0  0  0  0  0
   -3.5958    1.3601  -19.6321 C   0  0  0  0  0  0  0  0  0  0  0  0
   -3.1995    1.6332  -20.9137 C   0  0  0  0  0  0  0  0  0  0  0  0
   -3.9104    1.0868  -22.0078 C   0  0  0  0  0  0  0  0  0  0  0  0
   -5.0070    0.2852  -21.7997 C   0  0  0  0  0  0  0  0  0  0  0  0
   -5.4595   -0.0008  -20.4837 C   0  0  0  0  0  0  0  0  0  0  0  0
   -5.5431   -0.1405  -22.6438 H   0  0  0  0  0  0  0  0  0  0  0  0
   -3.5883    1.3065  -23.0203 H   0  0  0  0  0  0  0  0  0  0  0  0
   -2.3411    2.2714  -21.1054 H   0  0  0  0  0  0  0  0  0  0  0  0
   -3.0562    1.7775  -18.7844 H   0  0  0  0  0  0  0  0  0  0  0  0
   -4.6091    0.6238  -17.2205 H   0  0  0  0  0  0  0  0  0  0  0  0
   -7.7345   -1.6747  -18.5966 H   0  0  0  0  0  0  0  0  0  0  0  0
   -6.3526   -2.7564  -22.4399 H   0  0  0  0  0  0  0  0  0  0  0  0
   -6.7565   -3.2973  -20.8170 H   0  0  0  0  0  0  0  0  0  0  0  0
   -8.1099   -4.3498  -22.6836 H   0  0  0  0  0  0  0  0  0  0  0  0
  -10.2487   -2.5533  -22.6999 H   0  0  0  0  0  0  0  0  0  0  0  0
   -9.3414   -3.0387  -24.1055 H   0  0  0  0  0  0  0  0  0  0  0  0
   -9.6407   -0.4965  -23.4977 H   0  0  0  0  0  0  0  0  0  0  0  0
  1  2  2  0
  2  3  1  0
  3  4  1  0
  4  5  2  0
  5  6  1  0
  6  7  2  0
  7  8  1  0
  7  9  1  0
  9 10  1  0
  9 11  2  0
 11 12  1  0
  6 13  1  0
  5 14  1  0
  3 15  1  0
 15 16  1  0
 16 17  1  0
 17 18  1  0
 16 19  1  0
 19 20  1  0
 20 21  1  0
 21 22  2  0
 22 23  1  0
 23 24  2  0
 24 25  1  0
 25 26  2  0
 26 27  1  0
 27 28  2  0
 28 29  1  0
 29 30  2  0
 29 31  1  0
 28 32  1  0
 27 33  1  0
 26 34  1  0
 24 35  1  0
 22 36  1  0
 19 37  1  0
 19 38  1  0
 16 39  1  6
 15 40  1  0
 15 41  1  0
  3 42  1  6
 20  2  1  0
 30 21  1  0
 11  4  1  0
 30 25  1  0
M  END
>  <cnnaffinities>  (20) 
[5.35705]

>  <score>  (20) 
5.35705

>  <index>  (20) 
19

>  <Smiles>  (20) 
O=C1[C@@](c2c(c(c(Cl)c(Cl)c2[H])[H])[H])(C([C@](O[H])(C(N1c1c(nc(c2c(c(c(c(c12)[H])[H])[H])[H])[H])[H])([H])[H])[H])([H])[H])[H]

>  <h>  (20) 
<NA>

>  <Training>  (20) 
True

>  <Success>  (20) 
True

>  <enamine_searched>  (20) 
False

>  <enamine_id>  (20) 
nan

$$$$

     RDKit          3D

 66 71  0  0  0  0  0  0  0  0999 V2000
   -4.9059   -1.8879  -28.6518 C   0  0  0  0  0  0  0  0  0  0  0  0
   -4.9446   -1.5768  -27.2425 N   0  0  0  0  0  0  0  0  0  0  0  0
   -4.7937   -0.3062  -26.7858 C   0  0  0  0  0  0  0  0  0  0  0  0
   -4.4111    0.6097  -27.4931 O   0  0  0  0  0  0  0  0  0  0  0  0
   -5.1249   -0.0890  -25.3023 C   0  0  0  0  0  0  0  0  0  0  0  0
   -6.3728   -0.6750  -24.8360 N   0  0  0  0  0  0  0  0  0  0  0  0
   -6.3415   -1.8693  -24.0172 C   0  0  0  0  0  0  0  0  0  0  0  0
   -7.5024   -1.9515  -22.9931 C   0  0  2  0  0  0  0  0  0  0  0  0
   -7.2678   -1.0274  -21.7828 C   0  0  0  0  0  0  0  0  0  0  0  0
   -7.7014    0.0833  -21.5624 O   0  0  0  0  0  0  0  0  0  0  0  0
   -6.4848   -1.7374  -20.8975 N   0  0  0  0  0  0  0  0  0  0  0  0
   -5.8525   -1.0793  -19.8337 C   0  0  0  0  0  0  0  0  0  0  0  0
   -6.2061   -1.3733  -18.5430 C   0  0  0  0  0  0  0  0  0  0  0  0
   -5.7057   -0.7455  -17.4543 N   0  0  0  0  0  0  0  0  0  0  0  0
   -4.8230    0.2030  -17.6655 C   0  0  0  0  0  0  0  0  0  0  0  0
   -4.3477    0.5785  -18.9532 C   0  0  0  0  0  0  0  0  0  0  0  0
   -3.3627    1.5858  -19.1113 C   0  0  0  0  0  0  0  0  0  0  0  0
   -2.8647    1.8933  -20.3472 C   0  0  0  0  0  0  0  0  0  0  0  0
   -3.3470    1.2121  -21.4895 C   0  0  0  0  0  0  0  0  0  0  0  0
   -4.3275    0.2590  -21.3689 C   0  0  0  0  0  0  0  0  0  0  0  0
   -4.8588   -0.0815  -20.0876 C   0  0  0  0  0  0  0  0  0  0  0  0
   -4.7132   -0.2288  -22.2612 H   0  0  0  0  0  0  0  0  0  0  0  0
   -2.9426    1.4492  -22.4706 H   0  0  0  0  0  0  0  0  0  0  0  0
   -2.1047    2.6617  -20.4602 H   0  0  0  0  0  0  0  0  0  0  0  0
   -3.0278    2.0981  -18.2155 H   0  0  0  0  0  0  0  0  0  0  0  0
   -4.4225    0.7255  -16.7958 H   0  0  0  0  0  0  0  0  0  0  0  0
   -6.9537   -2.1447  -18.3533 H   0  0  0  0  0  0  0  0  0  0  0  0
   -6.3515   -3.1472  -21.2290 C   0  0  0  0  0  0  0  0  0  0  0  0
   -7.4763   -3.3118  -22.2520 C   0  0  2  0  0  0  0  0  0  0  0  0
   -7.5676   -4.5945  -23.0925 C   0  0  0  0  0  0  0  0  0  0  0  0
   -6.3441   -5.0715  -23.8418 C   0  0  0  0  0  0  0  0  0  0  0  0
   -5.2864   -5.6738  -23.1605 C   0  0  0  0  0  0  0  0  0  0  0  0
   -4.1914   -6.1906  -23.8459 C   0  0  0  0  0  0  0  0  0  0  0  0
   -4.1224   -6.0931  -25.2317 C   0  0  0  0  0  0  0  0  0  0  0  0
   -5.1557   -5.4701  -25.9269 C   0  0  0  0  0  0  0  0  0  0  0  0
   -6.2551   -4.9716  -25.2351 C   0  0  0  0  0  0  0  0  0  0  0  0
   -7.0514   -4.4605  -25.7767 H   0  0  0  0  0  0  0  0  0  0  0  0
   -5.0897   -5.3429  -27.0059 H   0  0  0  0  0  0  0  0  0  0  0  0
   -3.2663   -6.4931  -25.7679 H   0  0  0  0  0  0  0  0  0  0  0  0
   -3.3910   -6.6674  -23.2874 H   0  0  0  0  0  0  0  0  0  0  0  0
   -5.3222   -5.7231  -22.0745 H   0  0  0  0  0  0  0  0  0  0  0  0
   -8.3839   -4.4488  -23.8122 H   0  0  0  0  0  0  0  0  0  0  0  0
   -7.8970   -5.3878  -22.4092 H   0  0  0  0  0  0  0  0  0  0  0  0
   -8.3879   -3.2938  -21.6511 H   0  0  0  0  0  0  0  0  0  0  0  0
   -5.3629   -3.3626  -21.6520 H   0  0  0  0  0  0  0  0  0  0  0  0
   -6.4913   -3.7725  -20.3439 H   0  0  0  0  0  0  0  0  0  0  0  0
   -8.7953   -1.6257  -23.6870 C   0  0  0  0  0  0  0  0  0  0  0  0
  -10.0270   -1.9952  -23.1338 C   0  0  0  0  0  0  0  0  0  0  0  0
  -11.2105   -1.6200  -23.7395 C   0  0  0  0  0  0  0  0  0  0  0  0
  -12.6936   -2.1295  -22.9653 Cl  0  0  0  0  0  0  0  0  0  0  0  0
  -11.2113   -0.8583  -24.9121 C   0  0  0  0  0  0  0  0  0  0  0  0
   -9.9968   -0.5021  -25.4663 C   0  0  0  0  0  0  0  0  0  0  0  0
   -8.7995   -0.8482  -24.8495 C   0  0  0  0  0  0  0  0  0  0  0  0
   -7.5410   -0.2416  -25.3990 C   0  0  0  0  0  0  0  0  0  0  0  0
   -7.5623    0.6046  -26.2815 O   0  0  0  0  0  0  0  0  0  0  0  0
   -9.9164    0.0602  -26.3886 H   0  0  0  0  0  0  0  0  0  0  0  0
  -12.1338   -0.5431  -25.3827 H   0  0  0  0  0  0  0  0  0  0  0  0
  -10.0998   -2.5785  -22.2237 H   0  0  0  0  0  0  0  0  0  0  0  0
   -5.3683   -1.9400  -23.5224 H   0  0  0  0  0  0  0  0  0  0  0  0
   -6.4471   -2.7362  -24.6697 H   0  0  0  0  0  0  0  0  0  0  0  0
   -5.1306    0.9911  -25.1312 H   0  0  0  0  0  0  0  0  0  0  0  0
   -4.3125   -0.5250  -24.7051 H   0  0  0  0  0  0  0  0  0  0  0  0
   -5.0875   -2.3314  -26.5912 H   0  0  0  0  0  0  0  0  0  0  0  0
   -4.5657   -0.9943  -29.1740 H   0  0  0  0  0  0  0  0  0  0  0  0
   -5.9021   -2.1644  -29.0118 H   0  0  0  0  0  0  0  0  0  0  0  0
   -4.2214   -2.7142  -28.8613 H   0  0  0  0  0  0  0  0  0  0  0  0
  1  2  1  0
  2  3  1  0
  3  4  2  0
  3  5  1  0
  5  6  1  0
  6  7  1  0
  8  7  1  6
  8  9  1  0
  9 10  2  0
  9 11  1  0
 11 12  1  0
 12 13  2  0
 13 14  1  0
 14 15  2  0
 15 16  1  0
 16 17  2  0
 17 18  1  0
 18 19  2  0
 19 20  1  0
 20 21  2  0
 20 22  1  0
 19 23  1  0
 18 24  1  0
 17 25  1  0
 15 26  1  0
 13 27  1  0
 11 28  1  0
 28 29  1  0
 29 30  1  0
 30 31  1  0
 31 32  2  0
 32 33  1  0
 33 34  2  0
 34 35  1  0
 35 36  2  0
 36 37  1  0
 35 38  1  0
 34 39  1  0
 33 40  1  0
 32 41  1  0
 30 42  1  0
 30 43  1  0
 29 44  1  1
 28 45  1  0
 28 46  1  0
  8 47  1  0
 47 48  2  0
 48 49  1  0
 49 50  1  0
 49 51  2  0
 51 52  1  0
 52 53  2  0
 53 54  1  0
 54 55  2  0
 52 56  1  0
 51 57  1  0
 48 58  1  0
  7 59  1  0
  7 60  1  0
  5 61  1  0
  5 62  1  0
  2 63  1  0
  1 64  1  0
  1 65  1  0
  1 66  1  0
 54  6  1  0
 29  8  1  0
 36 31  1  0
 53 47  1  0
 21 12  1  0
 21 16  1  0
M  END
>  <cnnaffinities>  (21) 
[6.50584]

>  <score>  (21) 
6.50584

>  <index>  (21) 
20

>  <Smiles>  (21) 
C(N(C(=O)C(N1C([C@@]2(C(=O)N(c3c(nc(c4c(c(c(c(c34)[H])[H])[H])[H])[H])[H])C([C@@]2(C(c2c(c(c(c(c2[H])[H])[H])[H])[H])([H])[H])[H])([H])[H])c2c(c(Cl)c(c(c2C1=O)[H])[H])[H])([H])[H])([H])[H])[H])([H])([H])[H]

>  <h>  (21) 
<NA>

>  <Training>  (21) 
True

>  <Success>  (21) 
True

>  <enamine_searched>  (21) 
False

>  <enamine_id>  (21) 
nan

$$$$

     RDKit          3D

 63 68  0  0  0  0  0  0  0  0999 V2000
  -10.2139   -2.9788  -22.0705 C   0  0  0  0  0  0  0  0  0  0  0  0
   -9.1370   -2.0390  -22.6359 C   0  0  1  0  0  0  0  0  0  0  0  0
   -8.6778   -1.0451  -21.5515 C   0  0  0  0  0  0  0  0  0  0  0  0
   -7.3435   -1.4690  -21.2081 N   0  0  0  0  0  0  0  0  0  0  0  0
   -6.5721   -0.8583  -20.1964 C   0  0  0  0  0  0  0  0  0  0  0  0
   -6.9136   -1.0619  -18.8847 C   0  0  0  0  0  0  0  0  0  0  0  0
   -6.2284   -0.5631  -17.8298 N   0  0  0  0  0  0  0  0  0  0  0  0
   -5.1905    0.1945  -18.0967 C   0  0  0  0  0  0  0  0  0  0  0  0
   -4.7469    0.5074  -19.4139 C   0  0  0  0  0  0  0  0  0  0  0  0
   -3.6252    1.3477  -19.6369 C   0  0  0  0  0  0  0  0  0  0  0  0
   -3.2318    1.6585  -20.9088 C   0  0  0  0  0  0  0  0  0  0  0  0
   -3.9458    1.1486  -22.0190 C   0  0  0  0  0  0  0  0  0  0  0  0
   -5.0363    0.3346  -21.8350 C   0  0  0  0  0  0  0  0  0  0  0  0
   -5.4540   -0.0231  -20.5152 C   0  0  0  0  0  0  0  0  0  0  0  0
   -5.5828   -0.0345  -22.7048 H   0  0  0  0  0  0  0  0  0  0  0  0
   -3.6270    1.4102  -23.0252 H   0  0  0  0  0  0  0  0  0  0  0  0
   -2.3729    2.3029  -21.0796 H   0  0  0  0  0  0  0  0  0  0  0  0
   -3.1017    1.7455  -18.7720 H   0  0  0  0  0  0  0  0  0  0  0  0
   -4.6426    0.6094  -17.2501 H   0  0  0  0  0  0  0  0  0  0  0  0
   -7.7735   -1.6897  -18.6472 H   0  0  0  0  0  0  0  0  0  0  0  0
   -6.8129   -2.4266  -22.0364 C   0  0  0  0  0  0  0  0  0  0  0  0
   -5.7186   -2.9215  -21.8921 O   0  0  0  0  0  0  0  0  0  0  0  0
   -7.8317   -2.7158  -23.1519 C   0  0  1  0  0  0  0  0  0  0  0  0
   -7.9925   -4.2288  -23.3659 C   0  0  0  0  0  0  0  0  0  0  0  0
   -6.8228   -4.8210  -23.9876 N   0  0  0  0  0  0  0  0  0  0  0  0
   -6.4415   -6.1581  -23.5775 C   0  0  0  0  0  0  0  0  0  0  0  0
   -7.4318   -7.1845  -24.1290 C   0  0  0  0  0  0  0  0  0  0  0  0
   -8.3527   -7.6123  -23.4538 O   0  0  0  0  0  0  0  0  0  0  0  0
   -7.2304   -7.5016  -25.4429 N   0  0  0  0  0  0  0  0  0  0  0  0
   -8.3834   -7.8545  -26.2625 C   0  0  0  0  0  0  0  0  0  0  0  0
   -9.4023   -6.7494  -26.3843 C   0  0  0  0  0  0  0  0  0  0  0  0
   -9.0141   -5.5617  -27.2043 C   0  0  0  0  0  0  0  0  0  0  0  0
  -10.0735   -6.5112  -27.6966 C   0  0  0  0  0  0  0  0  0  0  0  0
  -11.1080   -6.1811  -27.7066 H   0  0  0  0  0  0  0  0  0  0  0  0
   -9.8158   -7.1920  -28.5014 H   0  0  0  0  0  0  0  0  0  0  0  0
   -8.0433   -5.6229  -27.6872 H   0  0  0  0  0  0  0  0  0  0  0  0
   -9.2935   -4.5703  -26.8609 H   0  0  0  0  0  0  0  0  0  0  0  0
  -10.0075   -6.5811  -25.5020 H   0  0  0  0  0  0  0  0  0  0  0  0
   -8.0119   -8.0938  -27.2635 H   0  0  0  0  0  0  0  0  0  0  0  0
   -8.8504   -8.7436  -25.8447 H   0  0  0  0  0  0  0  0  0  0  0  0
   -6.4705   -7.0171  -25.9052 H   0  0  0  0  0  0  0  0  0  0  0  0
   -5.4359   -6.3288  -23.9658 H   0  0  0  0  0  0  0  0  0  0  0  0
   -6.4601   -6.2135  -22.4840 H   0  0  0  0  0  0  0  0  0  0  0  0
   -6.2718   -4.2971  -25.1168 C   0  0  0  0  0  0  0  0  0  0  0  0
   -5.5387   -4.9494  -25.8604 O   0  0  0  0  0  0  0  0  0  0  0  0
   -6.5999   -2.8626  -25.3743 C   0  0  0  0  0  0  0  0  0  0  0  0
   -6.1249   -2.3086  -26.5602 C   0  0  0  0  0  0  0  0  0  0  0  0
   -6.3643   -0.9791  -26.8521 C   0  0  0  0  0  0  0  0  0  0  0  0
   -7.0695   -0.2204  -25.9240 C   0  0  0  0  0  0  0  0  0  0  0  0
   -7.2938    1.0799  -26.1924 F   0  0  0  0  0  0  0  0  0  0  0  0
   -7.5497   -0.7463  -24.7397 C   0  0  0  0  0  0  0  0  0  0  0  0
   -7.3355   -2.1024  -24.4561 C   0  0  0  0  0  0  0  0  0  0  0  0
   -8.1007   -0.0895  -24.0710 H   0  0  0  0  0  0  0  0  0  0  0  0
   -6.0083   -0.5047  -27.7594 H   0  0  0  0  0  0  0  0  0  0  0  0
   -5.5665   -2.9630  -27.2233 H   0  0  0  0  0  0  0  0  0  0  0  0
   -8.1402   -4.7377  -22.4129 H   0  0  0  0  0  0  0  0  0  0  0  0
   -8.8772   -4.3922  -23.9967 H   0  0  0  0  0  0  0  0  0  0  0  0
   -8.6800   -0.0025  -21.8946 H   0  0  0  0  0  0  0  0  0  0  0  0
   -9.3313   -1.0946  -20.6837 H   0  0  0  0  0  0  0  0  0  0  0  0
   -9.6081   -1.5106  -23.4701 H   0  0  0  0  0  0  0  0  0  0  0  0
  -10.6031   -3.6614  -22.8332 H   0  0  0  0  0  0  0  0  0  0  0  0
   -9.8303   -3.5740  -21.2335 H   0  0  0  0  0  0  0  0  0  0  0  0
  -11.0646   -2.3935  -21.7001 H   0  0  0  0  0  0  0  0  0  0  0  0
  1  2  1  0
  2  3  1  0
  3  4  1  0
  4  5  1  0
  5  6  2  0
  6  7  1  0
  7  8  2  0
  8  9  1  0
  9 10  2  0
 10 11  1  0
 11 12  2  0
 12 13  1  0
 13 14  2  0
 13 15  1  0
 12 16  1  0
 11 17  1  0
 10 18  1  0
  8 19  1  0
  6 20  1  0
  4 21  1  0
 21 22  2  0
 21 23  1  0
 23 24  1  6
 24 25  1  0
 25 26  1  0
 26 27  1  0
 27 28  2  0
 27 29  1  0
 29 30  1  0
 30 31  1  0
 31 32  1  0
 32 33  1  0
 33 34  1  0
 33 35  1  0
 32 36  1  0
 32 37  1  0
 31 38  1  0
 30 39  1  0
 30 40  1  0
 29 41  1  0
 26 42  1  0
 26 43  1  0
 25 44  1  0
 44 45  2  0
 44 46  1  0
 46 47  2  0
 47 48  1  0
 48 49  2  0
 49 50  1  0
 49 51  1  0
 51 52  2  0
 51 53  1  0
 48 54  1  0
 47 55  1  0
 24 56  1  0
 24 57  1  0
  3 58  1  0
  3 59  1  0
  2 60  1  6
  1 61  1  0
  1 62  1  0
  1 63  1  0
 23  2  1  0
 33 31  1  0
 52 46  1  0
 14  5  1  0
 52 23  1  0
 14  9  1  0
M  END
>  <cnnaffinities>  (22) 
[6.52889, 6.87942, 6.83637]

>  <score>  (22) 
6.52889

>  <index>  (22) 
21

>  <Smiles>  (22) 
C([C@]1(C(N(c2c(nc(c3c(c(c(c(c23)[H])[H])[H])[H])[H])[H])C(=O)[C@]21C(N(C(C(=O)N(C(C1(C(C1([H])[H])([H])[H])[H])([H])[H])[H])([H])[H])C(=O)c1c(c(c(F)c(c21)[H])[H])[H])([H])[H])([H])[H])[H])([H])([H])[H]

>  <h>  (22) 
<NA>

>  <Training>  (22) 
True

>  <Success>  (22) 
True

>  <enamine_searched>  (22) 
False

>  <enamine_id>  (22) 
nan

$$$$

     RDKit          3D

 68 73  0  0  0  0  0  0  0  0999 V2000
   -6.0682   -0.0054  -29.4163 C   0  0  0  0  0  0  0  0  0  0  0  0
   -5.9672    0.4425  -28.0401 N   0  0  0  0  0  0  0  0  0  0  0  0
   -5.2817   -0.3095  -27.1311 C   0  0  0  0  0  0  0  0  0  0  0  0
   -4.4877   -1.1741  -27.4536 O   0  0  0  0  0  0  0  0  0  0  0  0
   -5.5323    0.0173  -25.6406 C   0  0  0  0  0  0  0  0  0  0  0  0
   -6.7209   -0.6386  -25.1003 N   0  0  0  0  0  0  0  0  0  0  0  0
   -6.5933   -1.8094  -24.2344 C   0  0  0  0  0  0  0  0  0  0  0  0
   -7.7392   -1.9313  -23.1770 C   0  0  2  0  0  0  0  0  0  0  0  0
   -7.4258   -0.9887  -22.0001 C   0  0  0  0  0  0  0  0  0  0  0  0
   -7.7277    0.1733  -21.8752 O   0  0  0  0  0  0  0  0  0  0  0  0
   -6.6874   -1.7161  -21.0840 N   0  0  0  0  0  0  0  0  0  0  0  0
   -6.1362   -1.0269  -19.9895 C   0  0  0  0  0  0  0  0  0  0  0  0
   -6.6027   -1.2140  -18.7163 C   0  0  0  0  0  0  0  0  0  0  0  0
   -6.1030   -0.5765  -17.6303 N   0  0  0  0  0  0  0  0  0  0  0  0
   -5.1133    0.2678  -17.8205 C   0  0  0  0  0  0  0  0  0  0  0  0
   -4.5457    0.5586  -19.0991 C   0  0  0  0  0  0  0  0  0  0  0  0
   -3.4552    1.4521  -19.2948 C   0  0  0  0  0  0  0  0  0  0  0  0
   -3.0067    1.7451  -20.5553 C   0  0  0  0  0  0  0  0  0  0  0  0
   -3.6247    1.1743  -21.6894 C   0  0  0  0  0  0  0  0  0  0  0  0
   -4.6512    0.2866  -21.5263 C   0  0  0  0  0  0  0  0  0  0  0  0
   -5.1124   -0.0655  -20.2267 C   0  0  0  0  0  0  0  0  0  0  0  0
   -5.1384   -0.1284  -22.3999 H   0  0  0  0  0  0  0  0  0  0  0  0
   -3.2972    1.4394  -22.6913 H   0  0  0  0  0  0  0  0  0  0  0  0
   -2.1760    2.4277  -20.7029 H   0  0  0  0  0  0  0  0  0  0  0  0
   -2.9804    1.8989  -18.4265 H   0  0  0  0  0  0  0  0  0  0  0  0
   -4.7224    0.7675  -16.9334 H   0  0  0  0  0  0  0  0  0  0  0  0
   -7.4427   -1.8900  -18.5535 H   0  0  0  0  0  0  0  0  0  0  0  0
   -6.5211   -3.1254  -21.4479 C   0  0  0  0  0  0  0  0  0  0  0  0
   -7.7206   -3.2677  -22.3925 C   0  0  2  0  0  0  0  0  0  0  0  0
   -8.0088   -4.5616  -23.1760 C   0  0  0  0  0  0  0  0  0  0  0  0
   -6.9714   -5.1754  -23.9714 N   0  0  0  0  0  0  0  0  0  0  0  0
   -5.8483   -5.8048  -23.4602 C   0  0  0  0  0  0  0  0  0  0  0  0
   -4.6760   -5.8506  -24.2339 C   0  0  0  0  0  0  0  0  0  0  0  0
   -3.5237   -6.4390  -23.7333 C   0  0  0  0  0  0  0  0  0  0  0  0
   -3.5208   -7.0361  -22.4767 C   0  0  0  0  0  0  0  0  0  0  0  0
   -4.6922   -7.0336  -21.7229 C   0  0  0  0  0  0  0  0  0  0  0  0
   -5.8446   -6.4174  -22.1975 C   0  0  0  0  0  0  0  0  0  0  0  0
   -6.7509   -6.4318  -21.5964 H   0  0  0  0  0  0  0  0  0  0  0  0
   -4.7193   -7.5185  -20.7478 H   0  0  0  0  0  0  0  0  0  0  0  0
   -2.6150   -7.4978  -22.0917 H   0  0  0  0  0  0  0  0  0  0  0  0
   -2.6177   -6.4319  -24.3376 H   0  0  0  0  0  0  0  0  0  0  0  0
   -4.6756   -5.4147  -25.2325 H   0  0  0  0  0  0  0  0  0  0  0  0
   -6.9152   -4.9079  -24.9418 H   0  0  0  0  0  0  0  0  0  0  0  0
   -8.3811   -5.3101  -22.4692 H   0  0  0  0  0  0  0  0  0  0  0  0
   -8.8532   -4.3506  -23.8475 H   0  0  0  0  0  0  0  0  0  0  0  0
   -8.5723   -3.1742  -21.7086 H   0  0  0  0  0  0  0  0  0  0  0  0
   -5.5491   -3.3053  -21.9348 H   0  0  0  0  0  0  0  0  0  0  0  0
   -6.5818   -3.7620  -20.5610 H   0  0  0  0  0  0  0  0  0  0  0  0
   -9.0703   -1.6157  -23.7977 C   0  0  0  0  0  0  0  0  0  0  0  0
  -10.2907   -2.0088  -23.2205 C   0  0  0  0  0  0  0  0  0  0  0  0
  -11.4897   -1.5855  -23.7629 C   0  0  0  0  0  0  0  0  0  0  0  0
  -12.9623   -2.0944  -22.9610 Cl  0  0  0  0  0  0  0  0  0  0  0  0
  -11.5243   -0.7423  -24.8815 C   0  0  0  0  0  0  0  0  0  0  0  0
  -10.3366   -0.4060  -25.4716 C   0  0  0  0  0  0  0  0  0  0  0  0
   -9.1303   -0.8095  -24.9303 C   0  0  0  0  0  0  0  0  0  0  0  0
   -7.9240   -0.2139  -25.5498 C   0  0  0  0  0  0  0  0  0  0  0  0
   -8.0414    0.6681  -26.4064 O   0  0  0  0  0  0  0  0  0  0  0  0
  -10.2740    0.1999  -26.3608 H   0  0  0  0  0  0  0  0  0  0  0  0
  -12.4240   -0.2925  -25.2794 H   0  0  0  0  0  0  0  0  0  0  0  0
  -10.3600   -2.6155  -22.3244 H   0  0  0  0  0  0  0  0  0  0  0  0
   -5.6315   -1.7447  -23.7162 H   0  0  0  0  0  0  0  0  0  0  0  0
   -6.5738   -2.7162  -24.8448 H   0  0  0  0  0  0  0  0  0  0  0  0
   -4.6582   -0.3415  -25.0888 H   0  0  0  0  0  0  0  0  0  0  0  0
   -5.6232    1.0991  -25.4805 H   0  0  0  0  0  0  0  0  0  0  0  0
   -6.7659    0.9401  -27.6684 H   0  0  0  0  0  0  0  0  0  0  0  0
   -5.0618   -0.1372  -29.8195 H   0  0  0  0  0  0  0  0  0  0  0  0
   -6.6182   -0.9542  -29.5184 H   0  0  0  0  0  0  0  0  0  0  0  0
   -6.5926    0.7611  -30.0001 H   0  0  0  0  0  0  0  0  0  0  0  0
  1  2  1  0
  2  3  1  0
  3  4  2  0
  3  5  1  0
  5  6  1  0
  6  7  1  0
  8  7  1  6
  8  9  1  0
  9 10  2  0
  9 11  1  0
 11 12  1  0
 12 13  2  0
 13 14  1  0
 14 15  2  0
 15 16  1  0
 16 17  2  0
 17 18  1  0
 18 19  2  0
 19 20  1  0
 20 21  2  0
 20 22  1  0
 19 23  1  0
 18 24  1  0
 17 25  1  0
 15 26  1  0
 13 27  1  0
 11 28  1  0
 28 29  1  0
 29 30  1  0
 30 31  1  0
 31 32  1  0
 32 33  2  0
 33 34  1  0
 34 35  2  0
 35 36  1  0
 36 37  2  0
 37 38  1  0
 36 39  1  0
 35 40  1  0
 34 41  1  0
 33 42  1  0
 31 43  1  0
 30 44  1  0
 30 45  1  0
 29 46  1  1
 28 47  1  0
 28 48  1  0
  8 49  1  0
 49 50  2  0
 50 51  1  0
 51 52  1  0
 51 53  2  0
 53 54  1  0
 54 55  2  0
 55 56  1  0
 56 57  2  0
 54 58  1  0
 53 59  1  0
 50 60  1  0
  7 61  1  0
  7 62  1  0
  5 63  1  0
  5 64  1  0
  2 65  1  0
  1 66  1  0
  1 67  1  0
  1 68  1  0
 56  6  1  0
 29  8  1  0
 37 32  1  0
 55 49  1  0
 21 12  1  0
 21 16  1  0
M  END
>  <cnnaffinities>  (23) 
[6.54377, 6.67799, 6.65334, 6.79158]

>  <score>  (23) 
6.54377

>  <index>  (23) 
23

>  <Smiles>  (23) 
C(N(C(=O)C(N1C([C@@]2(C(=O)N(c3c(nc(c4c(c(c(c(c34)[H])[H])[H])[H])[H])[H])C([C@@]2(C(N(c2c(c(c(c(c2[H])[H])[H])[H])[H])[H])([H])[H])[H])([H])[H])c2c(c(Cl)c(c(c2C1=O)[H])[H])[H])([H])[H])([H])[H])[H])([H])([H])[H]

>  <h>  (23) 
<NA>

>  <Training>  (23) 
True

>  <Success>  (23) 
True

>  <enamine_searched>  (23) 
False

>  <enamine_id>  (23) 
nan

$$$$

     RDKit          3D

 65 70  0  0  0  0  0  0  0  0999 V2000
   -4.9609   -7.3246  -23.7358 O   0  0  0  0  0  0  0  0  0  0  0  0
   -6.0496   -7.3135  -24.2898 C   0  0  0  0  0  0  0  0  0  0  0  0
   -7.2464   -6.6138  -23.6555 C   0  0  0  0  0  0  0  0  0  0  0  0
   -7.1138   -5.1239  -23.8237 N   0  0  1  0  0  4  0  0  0  0  0  0
   -7.2940   -4.7339  -25.3108 C   0  0  0  0  0  0  0  0  0  0  0  0
   -7.2328   -3.2493  -25.5221 C   0  0  0  0  0  0  0  0  0  0  0  0
   -6.8728   -2.7583  -26.7744 C   0  0  0  0  0  0  0  0  0  0  0  0
   -6.8097   -1.3988  -27.0376 C   0  0  0  0  0  0  0  0  0  0  0  0
   -7.1165   -0.5139  -26.0100 C   0  0  0  0  0  0  0  0  0  0  0  0
   -7.0309    1.2005  -26.3058 Cl  0  0  0  0  0  0  0  0  0  0  0  0
   -7.4879   -0.9746  -24.7566 C   0  0  0  0  0  0  0  0  0  0  0  0
   -7.5591   -2.3510  -24.5057 C   0  0  0  0  0  0  0  0  0  0  0  0
   -7.9431   -2.8213  -23.1154 C   0  0  2  0  0  0  0  0  0  0  0  0
   -9.1910   -2.1105  -22.5611 C   0  0  0  0  0  0  0  0  0  0  0  0
   -8.7276   -1.1555  -21.4529 C   0  0  0  0  0  0  0  0  0  0  0  0
   -7.3235   -1.4867  -21.2433 N   0  0  0  0  0  0  0  0  0  0  0  0
   -6.5552   -0.8859  -20.2034 C   0  0  0  0  0  0  0  0  0  0  0  0
   -6.8943   -1.0663  -18.8843 C   0  0  0  0  0  0  0  0  0  0  0  0
   -6.2110   -0.5508  -17.8308 N   0  0  0  0  0  0  0  0  0  0  0  0
   -5.1751    0.2076  -18.0908 C   0  0  0  0  0  0  0  0  0  0  0  0
   -4.7339    0.5208  -19.4054 C   0  0  0  0  0  0  0  0  0  0  0  0
   -3.6118    1.3626  -19.6353 C   0  0  0  0  0  0  0  0  0  0  0  0
   -3.2238    1.6664  -20.9088 C   0  0  0  0  0  0  0  0  0  0  0  0
   -3.9483    1.1525  -22.0097 C   0  0  0  0  0  0  0  0  0  0  0  0
   -5.0340    0.3373  -21.8172 C   0  0  0  0  0  0  0  0  0  0  0  0
   -5.4467   -0.0232  -20.5036 C   0  0  0  0  0  0  0  0  0  0  0  0
   -5.5851   -0.0410  -22.6772 H   0  0  0  0  0  0  0  0  0  0  0  0
   -3.6361    1.4035  -23.0182 H   0  0  0  0  0  0  0  0  0  0  0  0
   -2.3687    2.3122  -21.0885 H   0  0  0  0  0  0  0  0  0  0  0  0
   -3.0813    1.7629  -18.7732 H   0  0  0  0  0  0  0  0  0  0  0  0
   -4.6306    0.6130  -17.2359 H   0  0  0  0  0  0  0  0  0  0  0  0
   -7.7505   -1.6795  -18.6055 H   0  0  0  0  0  0  0  0  0  0  0  0
   -6.8376   -2.4353  -22.1222 C   0  0  0  0  0  0  0  0  0  0  0  0
   -5.7339   -2.9448  -22.1315 O   0  0  0  0  0  0  0  0  0  0  0  0
   -8.8709   -0.0917  -21.7011 H   0  0  0  0  0  0  0  0  0  0  0  0
   -9.2948   -1.3641  -20.5521 H   0  0  0  0  0  0  0  0  0  0  0  0
   -9.7631   -1.6005  -23.3405 H   0  0  0  0  0  0  0  0  0  0  0  0
   -9.8586   -2.8590  -22.1244 H   0  0  0  0  0  0  0  0  0  0  0  0
   -8.1444   -4.3465  -23.0312 C   0  0  0  0  0  0  0  0  0  0  0  0
   -9.1355   -4.5936  -23.4221 H   0  0  0  0  0  0  0  0  0  0  0  0
   -8.1038   -4.6369  -21.9797 H   0  0  0  0  0  0  0  0  0  0  0  0
   -7.7212   -0.2484  -23.9788 H   0  0  0  0  0  0  0  0  0  0  0  0
   -6.5240   -1.0186  -28.0139 H   0  0  0  0  0  0  0  0  0  0  0  0
   -6.6302   -3.4590  -27.5682 H   0  0  0  0  0  0  0  0  0  0  0  0
   -8.2574   -5.1380  -25.6419 H   0  0  0  0  0  0  0  0  0  0  0  0
   -6.5232   -5.2206  -25.9026 H   0  0  0  0  0  0  0  0  0  0  0  0
   -6.1672   -4.8088  -23.4985 H   0  0  0  0  0  0  0  0  0  0  0  0
   -7.2404   -6.8645  -22.5954 H   0  0  0  0  0  0  0  0  0  0  0  0
   -8.1995   -6.9491  -24.0900 H   0  0  0  0  0  0  0  0  0  0  0  0
   -6.2568   -7.8720  -25.5122 N   0  0  0  0  0  0  0  0  0  0  0  0
   -5.1385   -8.4434  -26.2441 C   0  0  0  0  0  0  0  0  0  0  0  0
   -4.1972   -7.3780  -26.7929 C   0  0  1  0  0  0  0  0  0  0  0  0
   -3.1053   -7.8985  -27.7718 C   0  0  0  0  0  0  0  0  0  0  0  0
   -3.7227   -7.0560  -28.9096 C   0  0  1  0  0  0  0  0  0  0  0  0
   -4.2338   -7.8216  -29.9501 F   0  0  0  0  0  0  0  0  0  0  0  0
   -4.8001   -6.5196  -27.9445 C   0  0  0  0  0  0  0  0  0  0  0  0
   -5.8157   -6.8050  -28.2522 H   0  0  0  0  0  0  0  0  0  0  0  0
   -4.8081   -5.4355  -27.7735 H   0  0  0  0  0  0  0  0  0  0  0  0
   -3.0734   -6.3087  -29.3786 H   0  0  0  0  0  0  0  0  0  0  0  0
   -2.0780   -7.6392  -27.4939 H   0  0  0  0  0  0  0  0  0  0  0  0
   -3.1188   -8.9778  -27.9710 H   0  0  0  0  0  0  0  0  0  0  0  0
   -3.8036   -6.8058  -25.9417 H   0  0  0  0  0  0  0  0  0  0  0  0
   -5.5442   -9.0179  -27.0848 H   0  0  0  0  0  0  0  0  0  0  0  0
   -4.5776   -9.1077  -25.5720 H   0  0  0  0  0  0  0  0  0  0  0  0
   -7.1924   -7.9105  -25.8926 H   0  0  0  0  0  0  0  0  0  0  0  0
  1  2  2  0
  2  3  1  0
  3  4  1  0
  4  5  1  0
  5  6  1  0
  6  7  2  0
  7  8  1  0
  8  9  2  0
  9 10  1  0
  9 11  1  0
 11 12  2  0
 12 13  1  0
 13 14  1  1
 14 15  1  0
 15 16  1  0
 16 17  1  0
 17 18  2  0
 18 19  1  0
 19 20  2  0
 20 21  1  0
 21 22  2  0
 22 23  1  0
 23 24  2  0
 24 25  1  0
 25 26  2  0
 25 27  1  0
 24 28  1  0
 23 29  1  0
 22 30  1  0
 20 31  1  0
 18 32  1  0
 16 33  1  0
 33 34  2  0
 15 35  1  0
 15 36  1  0
 14 37  1  0
 14 38  1  0
 13 39  1  0
 39 40  1  0
 39 41  1  0
 11 42  1  0
  8 43  1  0
  7 44  1  0
  5 45  1  0
  5 46  1  0
  4 47  1  1
  3 48  1  0
  3 49  1  0
  2 50  1  0
 50 51  1  0
 51 52  1  0
 52 53  1  0
 53 54  1  0
 54 55  1  0
 54 56  1  0
 56 57  1  0
 56 58  1  0
 54 59  1  6
 53 60  1  0
 53 61  1  0
 52 62  1  1
 51 63  1  0
 51 64  1  0
 50 65  1  0
 39  4  1  0
 56 52  1  0
 12  6  1  0
 33 13  1  0
 26 17  1  0
 26 21  1  0
M  CHG  1   4   1
M  END
>  <cnnaffinities>  (24) 
[6.31538, 6.44435, 6.56189, 6.62707]

>  <score>  (24) 
6.31538

>  <index>  (24) 
24

>  <Smiles>  (24) 
O=C(C([N@+]1(C(c2c(c(c(Cl)c(c2[C@@]2(C(C(N(c3c(nc(c4c(c(c(c(c34)[H])[H])[H])[H])[H])[H])C2=O)([H])[H])([H])[H])C1([H])[H])[H])[H])[H])([H])[H])[H])([H])[H])N(C([C@]1(C([C@@](F)(C1([H])[H])[H])([H])[H])[H])([H])[H])[H]

>  <h>  (24) 
<NA>

>  <Training>  (24) 
True

>  <Success>  (24) 
True

>  <enamine_searched>  (24) 
False

>  <enamine_id>  (24) 
nan

$$$$

     RDKit          3D

 70 75  0  0  0  0  0  0  0  0999 V2000
   -5.7800   -7.7699  -25.5514 O   0  0  0  0  0  0  0  0  0  0  0  0
   -5.6684   -7.1695  -24.4974 C   0  0  0  0  0  0  0  0  0  0  0  0
   -6.8490   -6.4189  -23.8692 C   0  0  0  0  0  0  0  0  0  0  0  0
   -6.7824   -4.9120  -23.9716 N   0  0  1  0  0  4  0  0  0  0  0  0
   -6.7620   -4.5234  -25.4498 C   0  0  0  0  0  0  0  0  0  0  0  0
   -6.7692   -3.0269  -25.6397 C   0  0  0  0  0  0  0  0  0  0  0  0
   -6.2815   -2.4792  -26.8284 C   0  0  0  0  0  0  0  0  0  0  0  0
   -6.2997   -1.1086  -27.0490 C   0  0  0  0  0  0  0  0  0  0  0  0
   -6.8128   -0.2770  -26.0605 C   0  0  0  0  0  0  0  0  0  0  0  0
   -6.8494    1.4475  -26.3173 Cl  0  0  0  0  0  0  0  0  0  0  0  0
   -7.3030   -0.8052  -24.8749 C   0  0  0  0  0  0  0  0  0  0  0  0
   -7.2950   -2.1849  -24.6595 C   0  0  0  0  0  0  0  0  0  0  0  0
   -7.8085   -2.7015  -23.3259 C   0  0  2  0  0  0  0  0  0  0  0  0
   -6.8342   -2.3354  -22.2121 C   0  0  0  0  0  0  0  0  0  0  0  0
   -5.7231   -2.8438  -22.1962 O   0  0  0  0  0  0  0  0  0  0  0  0
   -7.3086   -1.4360  -21.2749 N   0  0  0  0  0  0  0  0  0  0  0  0
   -6.5558   -0.8583  -20.2198 C   0  0  0  0  0  0  0  0  0  0  0  0
   -6.8960   -1.0662  -18.9019 C   0  0  0  0  0  0  0  0  0  0  0  0
   -6.2105   -0.5708  -17.8418 N   0  0  0  0  0  0  0  0  0  0  0  0
   -5.1766    0.1955  -18.0879 C   0  0  0  0  0  0  0  0  0  0  0  0
   -4.7362    0.5237  -19.4011 C   0  0  0  0  0  0  0  0  0  0  0  0
   -3.6169    1.3716  -19.6246 C   0  0  0  0  0  0  0  0  0  0  0  0
   -3.2411    1.6938  -20.9005 C   0  0  0  0  0  0  0  0  0  0  0  0
   -3.9714    1.1991  -22.0071 C   0  0  0  0  0  0  0  0  0  0  0  0
   -5.0554    0.3788  -21.8162 C   0  0  0  0  0  0  0  0  0  0  0  0
   -5.4498    0.0012  -20.5012 C   0  0  0  0  0  0  0  0  0  0  0  0
   -5.6195    0.0120  -22.6677 H   0  0  0  0  0  0  0  0  0  0  0  0
   -3.6695    1.4658  -23.0161 H   0  0  0  0  0  0  0  0  0  0  0  0
   -2.3867    2.3420  -21.0757 H   0  0  0  0  0  0  0  0  0  0  0  0
   -3.0829    1.7579  -18.7591 H   0  0  0  0  0  0  0  0  0  0  0  0
   -4.6326    0.5953  -17.2303 H   0  0  0  0  0  0  0  0  0  0  0  0
   -7.7564   -1.6802  -18.6366 H   0  0  0  0  0  0  0  0  0  0  0  0
   -8.3130   -1.3717  -21.1784 H   0  0  0  0  0  0  0  0  0  0  0  0
   -7.9874   -4.2231  -23.3150 C   0  0  0  0  0  0  0  0  0  0  0  0
   -8.8871   -4.4964  -23.8746 H   0  0  0  0  0  0  0  0  0  0  0  0
   -8.0840   -4.5753  -22.2855 H   0  0  0  0  0  0  0  0  0  0  0  0
   -8.7632   -2.2192  -23.1043 H   0  0  0  0  0  0  0  0  0  0  0  0
   -7.6924   -0.1390  -24.1100 H   0  0  0  0  0  0  0  0  0  0  0  0
   -5.9220   -0.6792  -27.9719 H   0  0  0  0  0  0  0  0  0  0  0  0
   -5.8789   -3.1361  -27.5978 H   0  0  0  0  0  0  0  0  0  0  0  0
   -7.6459   -4.9741  -25.9253 H   0  0  0  0  0  0  0  0  0  0  0  0
   -5.8930   -4.9758  -25.9317 H   0  0  0  0  0  0  0  0  0  0  0  0
   -5.9451   -4.4987  -23.4943 H   0  0  0  0  0  0  0  0  0  0  0  0
   -7.7283   -6.7803  -24.4084 H   0  0  0  0  0  0  0  0  0  0  0  0
   -6.9723   -6.6972  -22.8216 H   0  0  0  0  0  0  0  0  0  0  0  0
   -4.5031   -7.1157  -23.7860 N   0  0  0  0  0  0  0  0  0  0  0  0
   -3.2943   -7.7502  -24.1745 C   0  0  0  0  0  0  0  0  0  0  0  0
   -2.0716   -7.1087  -23.9619 C   0  0  0  0  0  0  0  0  0  0  0  0
   -0.8864   -7.7078  -24.3861 C   0  0  0  0  0  0  0  0  0  0  0  0
   -0.9062   -8.9502  -25.0256 C   0  0  0  0  0  0  0  0  0  0  0  0
    0.3184   -9.5453  -25.4769 N   0  0  0  0  0  0  0  0  0  0  0  0
    1.3328   -9.8741  -24.4764 C   0  0  0  0  0  0  0  0  0  0  0  0
    2.6519  -10.2403  -25.1414 C   0  0  0  0  0  0  0  0  0  0  0  0
    2.4234  -11.1928  -26.1509 O   0  0  0  0  0  0  0  0  0  0  0  0
    1.7024  -10.6235  -27.2102 C   0  0  0  0  0  0  0  0  0  0  0  0
    0.4028   -9.9435  -26.7877 C   0  0  0  0  0  0  0  0  0  0  0  0
   -0.4732   -9.7303  -27.6075 O   0  0  0  0  0  0  0  0  0  0  0  0
    2.3109   -9.8653  -27.7322 H   0  0  0  0  0  0  0  0  0  0  0  0
    1.4528  -11.4267  -27.9065 H   0  0  0  0  0  0  0  0  0  0  0  0
    3.1447   -9.3545  -25.5697 H   0  0  0  0  0  0  0  0  0  0  0  0
    3.3346  -10.6985  -24.4180 H   0  0  0  0  0  0  0  0  0  0  0  0
    1.4729   -9.0108  -23.8183 H   0  0  0  0  0  0  0  0  0  0  0  0
    0.9792  -10.7222  -23.8757 H   0  0  0  0  0  0  0  0  0  0  0  0
   -2.1295   -9.6066  -25.1961 C   0  0  0  0  0  0  0  0  0  0  0  0
   -3.3125   -9.0090  -24.7749 C   0  0  0  0  0  0  0  0  0  0  0  0
   -4.2643   -9.5026  -24.9308 H   0  0  0  0  0  0  0  0  0  0  0  0
   -2.1630  -10.5788  -25.6879 H   0  0  0  0  0  0  0  0  0  0  0  0
    0.0610   -7.1907  -24.2333 H   0  0  0  0  0  0  0  0  0  0  0  0
   -2.0409   -6.1407  -23.4677 H   0  0  0  0  0  0  0  0  0  0  0  0
   -4.4977   -6.5256  -22.9714 H   0  0  0  0  0  0  0  0  0  0  0  0
  1  2  2  0
  2  3  1  0
  3  4  1  0
  4  5  1  0
  5  6  1  0
  6  7  2  0
  7  8  1  0
  8  9  2  0
  9 10  1  0
  9 11  1  0
 11 12  2  0
 12 13  1  0
 13 14  1  0
 14 15  2  0
 14 16  1  0
 16 17  1  0
 17 18  2  0
 18 19  1  0
 19 20  2  0
 20 21  1  0
 21 22  2  0
 22 23  1  0
 23 24  2  0
 24 25  1  0
 25 26  2  0
 25 27  1  0
 24 28  1  0
 23 29  1  0
 22 30  1  0
 20 31  1  0
 18 32  1  0
 16 33  1  0
 13 34  1  0
 34 35  1  0
 34 36  1  0
 13 37  1  1
 11 38  1  0
  8 39  1  0
  7 40  1  0
  5 41  1  0
  5 42  1  0
  4 43  1  1
  3 44  1  0
  3 45  1  0
  2 46  1  0
 46 47  1  0
 47 48  2  0
 48 49  1  0
 49 50  2  0
 50 51  1  0
 51 52  1  0
 52 53  1  0
 53 54  1  0
 54 55  1  0
 55 56  1  0
 56 57  2  0
 55 58  1  0
 55 59  1  0
 53 60  1  0
 53 61  1  0
 52 62  1  0
 52 63  1  0
 50 64  1  0
 64 65  2  0
 65 66  1  0
 64 67  1  0
 49 68  1  0
 48 69  1  0
 46 70  1  0
 34  4  1  0
 65 47  1  0
 12  6  1  0
 26 17  1  0
 56 51  1  0
 26 21  1  0
M  CHG  1   4   1
M  END
>  <cnnaffinities>  (25) 
[6.19748]

>  <score>  (25) 
6.19748

>  <index>  (25) 
25

>  <Smiles>  (25) 
O=C(C([N@+]1(C(c2c(c(c(Cl)c(c2[C@](C(=O)N(c2c(nc(c3c(c(c(c(c23)[H])[H])[H])[H])[H])[H])[H])(C1([H])[H])[H])[H])[H])[H])([H])[H])[H])([H])[H])N(c1c(c(c(N2C(C(OC(C2=O)([H])[H])([H])[H])([H])[H])c(c1[H])[H])[H])[H])[H]

>  <h>  (25) 
<NA>

>  <Training>  (25) 
True

>  <Success>  (25) 
True

>  <enamine_searched>  (25) 
False

>  <enamine_id>  (25) 
nan

$$$$

     RDKit          3D

 55 60  0  0  0  0  0  0  0  0999 V2000
  -10.2240   -2.9723  -22.0756 C   0  0  0  0  0  0  0  0  0  0  0  0
   -9.1562   -2.0159  -22.6297 C   0  0  1  0  0  0  0  0  0  0  0  0
   -8.6907   -1.0362  -21.5352 C   0  0  0  0  0  0  0  0  0  0  0  0
   -7.3490   -1.4520  -21.2028 N   0  0  0  0  0  0  0  0  0  0  0  0
   -6.5738   -0.8504  -20.1908 C   0  0  0  0  0  0  0  0  0  0  0  0
   -6.9116   -1.0611  -18.8802 C   0  0  0  0  0  0  0  0  0  0  0  0
   -6.2257   -0.5637  -17.8258 N   0  0  0  0  0  0  0  0  0  0  0  0
   -5.1890    0.1950  -18.0953 C   0  0  0  0  0  0  0  0  0  0  0  0
   -4.7456    0.5087  -19.4129 C   0  0  0  0  0  0  0  0  0  0  0  0
   -3.6244    1.3499  -19.6368 C   0  0  0  0  0  0  0  0  0  0  0  0
   -3.2329    1.6600  -20.9092 C   0  0  0  0  0  0  0  0  0  0  0  0
   -3.9473    1.1504  -22.0188 C   0  0  0  0  0  0  0  0  0  0  0  0
   -5.0366    0.3352  -21.8343 C   0  0  0  0  0  0  0  0  0  0  0  0
   -5.4541   -0.0201  -20.5132 C   0  0  0  0  0  0  0  0  0  0  0  0
   -5.5837   -0.0339  -22.7037 H   0  0  0  0  0  0  0  0  0  0  0  0
   -3.6282    1.4132  -23.0243 H   0  0  0  0  0  0  0  0  0  0  0  0
   -2.3747    2.3045  -21.0790 H   0  0  0  0  0  0  0  0  0  0  0  0
   -3.1004    1.7462  -18.7714 H   0  0  0  0  0  0  0  0  0  0  0  0
   -4.6405    0.6091  -17.2491 H   0  0  0  0  0  0  0  0  0  0  0  0
   -7.7714   -1.6900  -18.6471 H   0  0  0  0  0  0  0  0  0  0  0  0
   -6.8250   -2.4075  -22.0335 C   0  0  0  0  0  0  0  0  0  0  0  0
   -5.7416   -2.9315  -21.8790 O   0  0  0  0  0  0  0  0  0  0  0  0
   -7.8472   -2.6707  -23.1565 C   0  0  1  0  0  0  0  0  0  0  0  0
   -7.9486   -4.1772  -23.3658 C   0  0  0  0  0  0  0  0  0  0  0  0
   -6.7040   -4.6634  -23.9087 N   0  0  0  0  0  0  0  0  0  0  0  0
   -6.2849   -5.9580  -23.4403 C   0  0  0  0  0  0  0  0  0  0  0  0
   -7.1717   -7.0244  -24.0072 C   0  0  0  0  0  0  0  0  0  0  0  0
   -8.3934   -7.5619  -23.5679 C   0  0  0  0  0  0  0  0  0  0  0  0
   -8.9061   -8.3068  -24.5371 N   0  0  0  0  0  0  0  0  0  0  0  0
   -8.0207   -8.1909  -25.5115 N   0  0  0  0  0  0  0  0  0  0  0  0
   -6.9545   -7.4534  -25.2447 N   0  0  0  0  0  0  0  0  0  0  0  0
   -8.0435   -8.8328  -26.2916 H   0  0  0  0  0  0  0  0  0  0  0  0
   -8.9273   -7.4276  -22.6394 H   0  0  0  0  0  0  0  0  0  0  0  0
   -5.2729   -6.1098  -23.8067 H   0  0  0  0  0  0  0  0  0  0  0  0
   -6.2872   -5.9210  -22.3441 H   0  0  0  0  0  0  0  0  0  0  0  0
   -6.2107   -4.1913  -25.0910 C   0  0  0  0  0  0  0  0  0  0  0  0
   -5.4607   -4.8357  -25.8113 O   0  0  0  0  0  0  0  0  0  0  0  0
   -6.6269   -2.8012  -25.3945 C   0  0  0  0  0  0  0  0  0  0  0  0
   -6.1780   -2.2631  -26.5958 C   0  0  0  0  0  0  0  0  0  0  0  0
   -6.4021   -0.9300  -26.8682 C   0  0  0  0  0  0  0  0  0  0  0  0
   -7.0811   -0.1712  -25.9177 C   0  0  0  0  0  0  0  0  0  0  0  0
   -7.2793    1.1357  -26.1659 F   0  0  0  0  0  0  0  0  0  0  0  0
   -7.5615   -0.6988  -24.7339 C   0  0  0  0  0  0  0  0  0  0  0  0
   -7.3589   -2.0554  -24.4647 C   0  0  0  0  0  0  0  0  0  0  0  0
   -8.0874   -0.0484  -24.0410 H   0  0  0  0  0  0  0  0  0  0  0  0
   -6.0348   -0.4567  -27.7692 H   0  0  0  0  0  0  0  0  0  0  0  0
   -5.6306   -2.9296  -27.2586 H   0  0  0  0  0  0  0  0  0  0  0  0
   -8.1259   -4.6875  -22.4144 H   0  0  0  0  0  0  0  0  0  0  0  0
   -8.7736   -4.4069  -24.0530 H   0  0  0  0  0  0  0  0  0  0  0  0
   -9.3363   -1.1055  -20.6646 H   0  0  0  0  0  0  0  0  0  0  0  0
   -8.6968    0.0082  -21.8700 H   0  0  0  0  0  0  0  0  0  0  0  0
   -9.6308   -1.4807  -23.4589 H   0  0  0  0  0  0  0  0  0  0  0  0
   -9.8359   -3.5742  -21.2458 H   0  0  0  0  0  0  0  0  0  0  0  0
  -11.0771   -2.3957  -21.6989 H   0  0  0  0  0  0  0  0  0  0  0  0
  -10.6028   -3.6485  -22.8484 H   0  0  0  0  0  0  0  0  0  0  0  0
  1  2  1  0
  2  3  1  0
  3  4  1  0
  4  5  1  0
  5  6  2  0
  6  7  1  0
  7  8  2  0
  8  9  1  0
  9 10  2  0
 10 11  1  0
 11 12  2  0
 12 13  1  0
 13 14  2  0
 13 15  1  0
 12 16  1  0
 11 17  1  0
 10 18  1  0
  8 19  1  0
  6 20  1  0
  4 21  1  0
 21 22  2  0
 21 23  1  0
 23 24  1  6
 24 25  1  0
 25 26  1  0
 26 27  1  0
 27 28  1  0
 28 29  2  0
 29 30  1  0
 30 31  1  0
 30 32  1  0
 28 33  1  0
 26 34  1  0
 26 35  1  0
 25 36  1  0
 36 37  2  0
 36 38  1  0
 38 39  2  0
 39 40  1  0
 40 41  2  0
 41 42  1  0
 41 43  1  0
 43 44  2  0
 43 45  1  0
 40 46  1  0
 39 47  1  0
 24 48  1  0
 24 49  1  0
  3 50  1  0
  3 51  1  0
  2 52  1  6
  1 53  1  0
  1 54  1  0
  1 55  1  0
 23  2  1  0
 31 27  2  0
 44 38  1  0
 14  5  1  0
 44 23  1  0
 14  9  1  0
M  END
>  <cnnaffinities>  (26) 
[6.37232, 6.44909]

>  <score>  (26) 
6.37232

>  <index>  (26) 
26

>  <Smiles>  (26) 
C([C@]1(C(N(c2c(nc(c3c(c(c(c(c23)[H])[H])[H])[H])[H])[H])C(=O)[C@]21C(N(C(c1c(nn(n1)[H])[H])([H])[H])C(=O)c1c(c(c(F)c(c21)[H])[H])[H])([H])[H])([H])[H])[H])([H])([H])[H]

>  <h>  (26) 
<NA>

>  <Training>  (26) 
True

>  <Success>  (26) 
True

>  <enamine_searched>  (26) 
False

>  <enamine_id>  (26) 
nan

$$$$

     RDKit          3D

 58 62  0  0  0  0  0  0  0  0999 V2000
   -3.7575   -5.3548  -22.7118 C   0  0  0  0  0  0  0  0  0  0  0  0
   -4.4942   -6.5314  -22.1685 N   0  0  0  0  0  4  0  0  0  0  0  0
   -5.6205   -6.2262  -21.2130 C   0  0  0  0  0  0  0  0  0  0  0  0
   -6.9963   -6.4861  -21.8429 C   0  0  0  0  0  0  0  0  0  0  0  0
   -7.3386   -5.4511  -22.8069 N   0  0  0  0  0  0  0  0  0  0  0  0
   -8.3174   -4.4359  -22.4658 C   0  0  0  0  0  0  0  0  0  0  0  0
   -7.9066   -3.0154  -22.9232 C   0  0  2  0  0  0  0  0  0  0  0  0
   -6.7908   -2.4814  -21.9835 C   0  0  0  0  0  0  0  0  0  0  0  0
   -5.6535   -2.9072  -21.8813 O   0  0  0  0  0  0  0  0  0  0  0  0
   -7.3086   -1.4483  -21.2334 N   0  0  0  0  0  0  0  0  0  0  0  0
   -6.5675   -0.8464  -20.1973 C   0  0  0  0  0  0  0  0  0  0  0  0
   -6.9115   -1.0592  -18.8892 C   0  0  0  0  0  0  0  0  0  0  0  0
   -6.2372   -0.5580  -17.8278 N   0  0  0  0  0  0  0  0  0  0  0  0
   -5.1993    0.2005  -18.0873 C   0  0  0  0  0  0  0  0  0  0  0  0
   -4.7470    0.5149  -19.3995 C   0  0  0  0  0  0  0  0  0  0  0  0
   -3.6214    1.3517  -19.6217 C   0  0  0  0  0  0  0  0  0  0  0  0
   -3.2288    1.6512  -20.8958 C   0  0  0  0  0  0  0  0  0  0  0  0
   -3.9400    1.1468  -22.0035 C   0  0  0  0  0  0  0  0  0  0  0  0
   -5.0299    0.3358  -21.8168 C   0  0  0  0  0  0  0  0  0  0  0  0
   -5.4512   -0.0105  -20.5005 C   0  0  0  0  0  0  0  0  0  0  0  0
   -5.5750   -0.0503  -22.6705 H   0  0  0  0  0  0  0  0  0  0  0  0
   -3.6202    1.4070  -23.0095 H   0  0  0  0  0  0  0  0  0  0  0  0
   -2.3766    2.3031  -21.0631 H   0  0  0  0  0  0  0  0  0  0  0  0
   -3.0975    1.7511  -18.7577 H   0  0  0  0  0  0  0  0  0  0  0  0
   -4.6529    0.6026  -17.2345 H   0  0  0  0  0  0  0  0  0  0  0  0
   -7.7661   -1.6891  -18.6517 H   0  0  0  0  0  0  0  0  0  0  0  0
   -8.7546   -1.3622  -21.3116 C   0  0  0  0  0  0  0  0  0  0  0  0
   -9.0736   -2.0014  -22.6690 C   0  0  2  0  0  0  0  0  0  0  0  0
  -10.4899   -2.5673  -22.6986 C   0  0  0  0  0  0  0  0  0  0  0  0
  -10.6995   -3.0829  -23.6406 H   0  0  0  0  0  0  0  0  0  0  0  0
  -10.6442   -3.2807  -21.8795 H   0  0  0  0  0  0  0  0  0  0  0  0
  -11.2169   -1.7597  -22.5794 H   0  0  0  0  0  0  0  0  0  0  0  0
   -9.0044   -1.2133  -23.4242 H   0  0  0  0  0  0  0  0  0  0  0  0
   -9.2523   -1.9174  -20.5004 H   0  0  0  0  0  0  0  0  0  0  0  0
   -9.0823   -0.3199  -21.2581 H   0  0  0  0  0  0  0  0  0  0  0  0
   -7.4033   -3.0878  -24.3491 C   0  0  0  0  0  0  0  0  0  0  0  0
   -7.3293   -1.9299  -25.1280 C   0  0  0  0  0  0  0  0  0  0  0  0
   -6.8940   -2.0146  -26.4313 C   0  0  0  0  0  0  0  0  0  0  0  0
   -6.8237   -0.8919  -27.1629 F   0  0  0  0  0  0  0  0  0  0  0  0
   -6.5245   -3.2130  -27.0261 C   0  0  0  0  0  0  0  0  0  0  0  0
   -6.5403   -4.3469  -26.2391 C   0  0  0  0  0  0  0  0  0  0  0  0
   -6.9199   -4.2850  -24.8965 C   0  0  0  0  0  0  0  0  0  0  0  0
   -6.7244   -5.4799  -24.0143 C   0  0  0  0  0  0  0  0  0  0  0  0
   -5.9884   -6.4231  -24.3469 O   0  0  0  0  0  0  0  0  0  0  0  0
   -6.2509   -5.3019  -26.6584 H   0  0  0  0  0  0  0  0  0  0  0  0
   -6.2071   -3.2320  -28.0633 H   0  0  0  0  0  0  0  0  0  0  0  0
   -7.5944   -0.9569  -24.7322 H   0  0  0  0  0  0  0  0  0  0  0  0
   -8.4073   -4.4119  -21.3809 H   0  0  0  0  0  0  0  0  0  0  0  0
   -9.2946   -4.6928  -22.8971 H   0  0  0  0  0  0  0  0  0  0  0  0
   -7.7763   -6.5137  -21.0775 H   0  0  0  0  0  0  0  0  0  0  0  0
   -7.0008   -7.4550  -22.3553 H   0  0  0  0  0  0  0  0  0  0  0  0
   -5.5104   -6.8531  -20.3241 H   0  0  0  0  0  0  0  0  0  0  0  0
   -5.5567   -5.1715  -20.9322 H   0  0  0  0  0  0  0  0  0  0  0  0
   -4.9085   -7.0079  -23.0032 H   0  0  0  0  0  0  0  0  0  0  0  0
   -3.8229   -7.1794  -21.7018 H   0  0  0  0  0  0  0  0  0  0  0  0
   -2.8526   -5.6967  -23.2196 H   0  0  0  0  0  0  0  0  0  0  0  0
   -4.3781   -4.8176  -23.4352 H   0  0  0  0  0  0  0  0  0  0  0  0
   -3.5021   -4.6594  -21.9129 H   0  0  0  0  0  0  0  0  0  0  0  0
  1  2  1  0
  2  3  1  0
  3  4  1  0
  4  5  1  0
  5  6  1  0
  7  6  1  1
  7  8  1  0
  8  9  2  0
  8 10  1  0
 10 11  1  0
 11 12  2  0
 12 13  1  0
 13 14  2  0
 14 15  1  0
 15 16  2  0
 16 17  1  0
 17 18  2  0
 18 19  1  0
 19 20  2  0
 19 21  1  0
 18 22  1  0
 17 23  1  0
 16 24  1  0
 14 25  1  0
 12 26  1  0
 10 27  1  0
 27 28  1  0
 28 29  1  0
 29 30  1  0
 29 31  1  0
 29 32  1  0
 28 33  1  6
 27 34  1  0
 27 35  1  0
  7 36  1  0
 36 37  2  0
 37 38  1  0
 38 39  1  0
 38 40  2  0
 40 41  1  0
 41 42  2  0
 42 43  1  0
 43 44  2  0
 41 45  1  0
 40 46  1  0
 37 47  1  0
  6 48  1  0
  6 49  1  0
  4 50  1  0
  4 51  1  0
  3 52  1  0
  3 53  1  0
  2 54  1  0
  2 55  1  0
  1 56  1  0
  1 57  1  0
  1 58  1  0
 43  5  1  0
 28  7  1  0
 42 36  1  0
 20 11  1  0
 20 15  1  0
M  CHG  1   2   1
M  END
>  <cnnaffinities>  (27) 
[6.04729]

>  <score>  (27) 
6.04729

>  <index>  (27) 
27

>  <Smiles>  (27) 
C([N+](C(C(N1C([C@@]2(C(=O)N(c3c(nc(c4c(c(c(c(c34)[H])[H])[H])[H])[H])[H])C([C@@]2(C([H])([H])[H])[H])([H])[H])c2c(c(F)c(c(c2C1=O)[H])[H])[H])([H])[H])([H])[H])([H])[H])([H])[H])([H])([H])[H]

>  <h>  (27) 
<NA>

>  <Training>  (27) 
True

>  <Success>  (27) 
True

>  <enamine_searched>  (27) 
False

>  <enamine_id>  (27) 
nan

$$$$

     RDKit          3D

 64 68  0  0  0  0  0  0  0  0999 V2000
   -7.4350    0.5110  -29.5229 C   0  0  0  0  0  0  0  0  0  0  0  0
   -7.6869   -0.5655  -28.5897 N   0  0  0  0  0  0  0  0  0  0  0  0
   -6.7777   -0.8749  -27.6281 C   0  0  0  0  0  0  0  0  0  0  0  0
   -5.7136   -0.2938  -27.5046 O   0  0  0  0  0  0  0  0  0  0  0  0
   -7.1722   -2.0472  -26.7139 C   0  0  0  0  0  0  0  0  0  0  0  0
   -8.0060   -1.6539  -25.5864 N   0  0  0  0  0  0  0  0  0  0  0  0
   -7.4100   -1.3173  -24.2867 C   0  0  0  0  0  0  0  0  0  0  0  0
   -8.1944   -1.9119  -23.0601 C   0  0  2  0  0  0  0  0  0  0  0  0
   -7.8228   -1.0937  -21.8122 C   0  0  0  0  0  0  0  0  0  0  0  0
   -8.2158    0.0079  -21.4976 O   0  0  0  0  0  0  0  0  0  0  0  0
   -6.8712   -1.7959  -21.1001 N   0  0  0  0  0  0  0  0  0  0  0  0
   -6.2063   -1.1167  -20.0500 C   0  0  0  0  0  0  0  0  0  0  0  0
   -6.6380   -1.2797  -18.7633 C   0  0  0  0  0  0  0  0  0  0  0  0
   -6.1036   -0.6481  -17.6905 N   0  0  0  0  0  0  0  0  0  0  0  0
   -5.1290    0.2029  -17.9095 C   0  0  0  0  0  0  0  0  0  0  0  0
   -4.6024    0.4888  -19.2018 C   0  0  0  0  0  0  0  0  0  0  0  0
   -3.5618    1.4358  -19.3964 C   0  0  0  0  0  0  0  0  0  0  0  0
   -3.0966    1.7052  -20.6543 C   0  0  0  0  0  0  0  0  0  0  0  0
   -3.6584    1.0523  -21.7749 C   0  0  0  0  0  0  0  0  0  0  0  0
   -4.6692    0.1385  -21.6146 C   0  0  0  0  0  0  0  0  0  0  0  0
   -5.1599   -0.1774  -20.3155 C   0  0  0  0  0  0  0  0  0  0  0  0
   -5.1132   -0.3418  -22.4830 H   0  0  0  0  0  0  0  0  0  0  0  0
   -3.2946    1.2844  -22.7707 H   0  0  0  0  0  0  0  0  0  0  0  0
   -2.3028    2.4321  -20.8046 H   0  0  0  0  0  0  0  0  0  0  0  0
   -3.1601    1.9476  -18.5259 H   0  0  0  0  0  0  0  0  0  0  0  0
   -4.7133    0.7242  -17.0446 H   0  0  0  0  0  0  0  0  0  0  0  0
   -7.4774   -1.9425  -18.5597 H   0  0  0  0  0  0  0  0  0  0  0  0
   -6.5028   -3.0680  -21.7013 C   0  0  0  0  0  0  0  0  0  0  0  0
   -7.6985   -3.3359  -22.6281 C   0  0  2  0  0  0  0  0  0  0  0  0
   -7.4245   -4.3050  -23.7766 C   0  0  0  0  0  0  0  0  0  0  0  0
   -7.4046   -6.0176  -23.2628 S   0  0  0  0  0  0  0  0  0  0  0  0
   -8.5257   -6.2236  -22.3567 O   0  0  0  0  0  0  0  0  0  0  0  0
   -7.2490   -6.8322  -24.4592 O   0  0  0  0  0  0  0  0  0  0  0  0
   -5.9992   -6.1497  -22.3415 N   0  0  0  0  0  0  0  0  0  0  0  0
   -6.0048   -7.3036  -21.4232 C   0  0  0  0  0  0  0  0  0  0  0  0
   -6.9440   -7.2957  -20.8701 H   0  0  0  0  0  0  0  0  0  0  0  0
   -5.9038   -8.2675  -21.9391 H   0  0  0  0  0  0  0  0  0  0  0  0
   -5.1735   -7.1749  -20.7273 H   0  0  0  0  0  0  0  0  0  0  0  0
   -5.2175   -6.2099  -22.9917 H   0  0  0  0  0  0  0  0  0  0  0  0
   -8.2055   -4.2650  -24.5438 H   0  0  0  0  0  0  0  0  0  0  0  0
   -6.4726   -4.1017  -24.2752 H   0  0  0  0  0  0  0  0  0  0  0  0
   -8.5025   -3.7538  -22.0112 H   0  0  0  0  0  0  0  0  0  0  0  0
   -6.3695   -3.8419  -20.9446 H   0  0  0  0  0  0  0  0  0  0  0  0
   -5.5675   -2.9946  -22.2783 H   0  0  0  0  0  0  0  0  0  0  0  0
   -9.6492   -1.8206  -23.3067 C   0  0  0  0  0  0  0  0  0  0  0  0
  -10.6508   -1.9691  -22.2868 C   0  0  0  0  0  0  0  0  0  0  0  0
  -11.9019   -2.2876  -22.7417 C   0  0  0  0  0  0  0  0  0  0  0  0
  -12.0556   -4.4645  -23.5553 Cl  0  0  0  0  0  0  0  0  0  0  0  0
  -12.1283   -1.9632  -22.9064 C   0  0  0  0  0  0  0  0  0  0  0  0
  -11.4758   -1.1620  -24.6069 C   0  0  0  0  0  0  0  0  0  0  0  0
  -10.1761   -1.4237  -24.5869 C   0  0  0  0  0  0  0  0  0  0  0  0
   -9.3338   -1.4832  -25.8275 C   0  0  0  0  0  0  0  0  0  0  0  0
   -9.8237   -1.4409  -26.9572 O   0  0  0  0  0  0  0  0  0  0  0  0
  -12.0303   -0.7085  -25.4250 H   0  0  0  0  0  0  0  0  0  0  0  0
  -13.0358   -1.3621  -23.2461 H   0  0  0  0  0  0  0  0  0  0  0  0
  -10.5978   -2.7110  -21.5688 H   0  0  0  0  0  0  0  0  0  0  0  0
   -7.3870   -0.2294  -24.1531 H   0  0  0  0  0  0  0  0  0  0  0  0
   -6.3780   -1.6666  -24.2821 H   0  0  0  0  0  0  0  0  0  0  0  0
   -7.7282   -2.8000  -27.2824 H   0  0  0  0  0  0  0  0  0  0  0  0
   -6.2490   -2.4967  -26.3415 H   0  0  0  0  0  0  0  0  0  0  0  0
   -8.6275   -0.9235  -28.4796 H   0  0  0  0  0  0  0  0  0  0  0  0
   -6.3691    0.5375  -29.7570 H   0  0  0  0  0  0  0  0  0  0  0  0
   -8.0000    0.3332  -30.4423 H   0  0  0  0  0  0  0  0  0  0  0  0
   -7.7143    1.4877  -29.1118 H   0  0  0  0  0  0  0  0  0  0  0  0
  1  2  1  0
  2  3  1  0
  3  4  2  0
  3  5  1  0
  5  6  1  0
  6  7  1  0
  8  7  1  6
  8  9  1  0
  9 10  2  0
  9 11  1  0
 11 12  1  0
 12 13  2  0
 13 14  1  0
 14 15  2  0
 15 16  1  0
 16 17  2  0
 17 18  1  0
 18 19  2  0
 19 20  1  0
 20 21  2  0
 20 22  1  0
 19 23  1  0
 18 24  1  0
 17 25  1  0
 15 26  1  0
 13 27  1  0
 11 28  1  0
 28 29  1  0
 29 30  1  0
 30 31  1  0
 31 32  2  0
 31 33  2  0
 31 34  1  0
 34 35  1  0
 35 36  1  0
 35 37  1  0
 35 38  1  0
 34 39  1  0
 30 40  1  0
 30 41  1  0
 29 42  1  1
 28 43  1  0
 28 44  1  0
  8 45  1  0
 45 46  2  0
 46 47  1  0
 47 48  1  0
 47 49  2  0
 49 50  1  0
 50 51  2  0
 51 52  1  0
 52 53  2  0
 50 54  1  0
 49 55  1  0
 46 56  1  0
  7 57  1  0
  7 58  1  0
  5 59  1  0
  5 60  1  0
  2 61  1  0
  1 62  1  0
  1 63  1  0
  1 64  1  0
 52  6  1  0
 29  8  1  0
 51 45  1  0
 21 12  1  0
 21 16  1  0
M  END
>  <cnnaffinities>  (28) 
[6.19086]

>  <score>  (28) 
6.19086

>  <index>  (28) 
28

>  <Smiles>  (28) 
C(N(C(=O)C(N1C([C@@]2(C(=O)N(c3c(nc(c4c(c(c(c(c34)[H])[H])[H])[H])[H])[H])C([C@@]2(C(S(=O)(=O)N(C([H])([H])[H])[H])([H])[H])[H])([H])[H])c2c(c(Cl)c(c(c2C1=O)[H])[H])[H])([H])[H])([H])[H])[H])([H])([H])[H]

>  <h>  (28) 
<NA>

>  <Training>  (28) 
True

>  <Success>  (28) 
True

>  <enamine_searched>  (28) 
False

>  <enamine_id>  (28) 
nan

$$$$

     RDKit          3D

 55 60  0  0  0  0  0  0  0  0999 V2000
  -10.2240   -2.9723  -22.0756 C   0  0  0  0  0  0  0  0  0  0  0  0
   -9.1562   -2.0159  -22.6297 C   0  0  1  0  0  0  0  0  0  0  0  0
   -8.6907   -1.0363  -21.5352 C   0  0  0  0  0  0  0  0  0  0  0  0
   -7.3490   -1.4520  -21.2029 N   0  0  0  0  0  0  0  0  0  0  0  0
   -6.5737   -0.8505  -20.1908 C   0  0  0  0  0  0  0  0  0  0  0  0
   -6.9116   -1.0611  -18.8801 C   0  0  0  0  0  0  0  0  0  0  0  0
   -6.2257   -0.5636  -17.8258 N   0  0  0  0  0  0  0  0  0  0  0  0
   -5.1890    0.1951  -18.0952 C   0  0  0  0  0  0  0  0  0  0  0  0
   -4.7455    0.5088  -19.4129 C   0  0  0  0  0  0  0  0  0  0  0  0
   -3.6243    1.3500  -19.6368 C   0  0  0  0  0  0  0  0  0  0  0  0
   -3.2329    1.6600  -20.9092 C   0  0  0  0  0  0  0  0  0  0  0  0
   -3.9473    1.1505  -22.0187 C   0  0  0  0  0  0  0  0  0  0  0  0
   -5.0367    0.3352  -21.8343 C   0  0  0  0  0  0  0  0  0  0  0  0
   -5.4541   -0.0201  -20.5132 C   0  0  0  0  0  0  0  0  0  0  0  0
   -5.5837   -0.0339  -22.7037 H   0  0  0  0  0  0  0  0  0  0  0  0
   -3.6282    1.4131  -23.0243 H   0  0  0  0  0  0  0  0  0  0  0  0
   -2.3747    2.3046  -21.0790 H   0  0  0  0  0  0  0  0  0  0  0  0
   -3.1003    1.7463  -18.7714 H   0  0  0  0  0  0  0  0  0  0  0  0
   -4.6404    0.6091  -17.2491 H   0  0  0  0  0  0  0  0  0  0  0  0
   -7.7713   -1.6900  -18.6470 H   0  0  0  0  0  0  0  0  0  0  0  0
   -6.8249   -2.4074  -22.0336 C   0  0  0  0  0  0  0  0  0  0  0  0
   -5.7415   -2.9314  -21.8793 O   0  0  0  0  0  0  0  0  0  0  0  0
   -7.8473   -2.6707  -23.1566 C   0  0  1  0  0  0  0  0  0  0  0  0
   -7.9487   -4.1772  -23.3658 C   0  0  0  0  0  0  0  0  0  0  0  0
   -6.7041   -4.6635  -23.9088 N   0  0  0  0  0  0  0  0  0  0  0  0
   -6.2849   -5.9580  -23.4403 C   0  0  0  0  0  0  0  0  0  0  0  0
   -7.1716   -7.0245  -24.0073 C   0  0  0  0  0  0  0  0  0  0  0  0
   -8.3932   -7.5620  -23.5681 C   0  0  0  0  0  0  0  0  0  0  0  0
   -8.9059   -8.3068  -24.5372 N   0  0  0  0  0  0  0  0  0  0  0  0
   -8.0204   -8.1911  -25.5115 N   0  0  0  0  0  0  0  0  0  0  0  0
   -6.9542   -7.4537  -25.2446 N   0  0  0  0  0  0  0  0  0  0  0  0
   -8.0430   -8.8336  -26.2911 H   0  0  0  0  0  0  0  0  0  0  0  0
   -8.9271   -7.4278  -22.6396 H   0  0  0  0  0  0  0  0  0  0  0  0
   -5.2729   -6.1097  -23.8065 H   0  0  0  0  0  0  0  0  0  0  0  0
   -6.2874   -5.9212  -22.3442 H   0  0  0  0  0  0  0  0  0  0  0  0
   -6.2108   -4.1915  -25.0911 C   0  0  0  0  0  0  0  0  0  0  0  0
   -5.4609   -4.8358  -25.8114 O   0  0  0  0  0  0  0  0  0  0  0  0
   -6.6270   -2.8013  -25.3945 C   0  0  0  0  0  0  0  0  0  0  0  0
   -6.1780   -2.2632  -26.5958 C   0  0  0  0  0  0  0  0  0  0  0  0
   -6.4021   -0.9301  -26.8681 C   0  0  0  0  0  0  0  0  0  0  0  0
   -7.0811   -0.1712  -25.9176 C   0  0  0  0  0  0  0  0  0  0  0  0
   -7.2793    1.1357  -26.1659 F   0  0  0  0  0  0  0  0  0  0  0  0
   -7.5615   -0.6989  -24.7339 C   0  0  0  0  0  0  0  0  0  0  0  0
   -7.3590   -2.0555  -24.4648 C   0  0  0  0  0  0  0  0  0  0  0  0
   -8.0874   -0.0484  -24.0410 H   0  0  0  0  0  0  0  0  0  0  0  0
   -6.0348   -0.4566  -27.7692 H   0  0  0  0  0  0  0  0  0  0  0  0
   -5.6305   -2.9296  -27.2586 H   0  0  0  0  0  0  0  0  0  0  0  0
   -8.1259   -4.6876  -22.4144 H   0  0  0  0  0  0  0  0  0  0  0  0
   -8.7738   -4.4070  -24.0529 H   0  0  0  0  0  0  0  0  0  0  0  0
   -9.3363   -1.1057  -20.6646 H   0  0  0  0  0  0  0  0  0  0  0  0
   -8.6968    0.0082  -21.8699 H   0  0  0  0  0  0  0  0  0  0  0  0
   -9.6308   -1.4807  -23.4589 H   0  0  0  0  0  0  0  0  0  0  0  0
   -9.8359   -3.5743  -21.2458 H   0  0  0  0  0  0  0  0  0  0  0  0
  -11.0772   -2.3957  -21.6989 H   0  0  0  0  0  0  0  0  0  0  0  0
  -10.6029   -3.6485  -22.8484 H   0  0  0  0  0  0  0  0  0  0  0  0
  1  2  1  0
  2  3  1  0
  3  4  1  0
  4  5  1  0
  5  6  2  0
  6  7  1  0
  7  8  2  0
  8  9  1  0
  9 10  2  0
 10 11  1  0
 11 12  2  0
 12 13  1  0
 13 14  2  0
 13 15  1  0
 12 16  1  0
 11 17  1  0
 10 18  1  0
  8 19  1  0
  6 20  1  0
  4 21  1  0
 21 22  2  0
 21 23  1  0
 23 24  1  6
 24 25  1  0
 25 26  1  0
 26 27  1  0
 27 28  1  0
 28 29  2  0
 29 30  1  0
 30 31  1  0
 30 32  1  0
 28 33  1  0
 26 34  1  0
 26 35  1  0
 25 36  1  0
 36 37  2  0
 36 38  1  0
 38 39  2  0
 39 40  1  0
 40 41  2  0
 41 42  1  0
 41 43  1  0
 43 44  2  0
 43 45  1  0
 40 46  1  0
 39 47  1  0
 24 48  1  0
 24 49  1  0
  3 50  1  0
  3 51  1  0
  2 52  1  6
  1 53  1  0
  1 54  1  0
  1 55  1  0
 23  2  1  0
 31 27  2  0
 44 38  1  0
 14  5  1  0
 44 23  1  0
 14  9  1  0
M  END
>  <cnnaffinities>  (29) 
[6.37243, 6.44915]

>  <score>  (29) 
6.37243

>  <index>  (29) 
29

>  <Smiles>  (29) 
C([C@]1(C(N(c2c(nc(c3c(c(c(c(c23)[H])[H])[H])[H])[H])[H])C(=O)[C@]21C(N(C(c1c(nn(n1)[H])[H])([H])[H])C(=O)c1c(c(c(F)c(c21)[H])[H])[H])([H])[H])([H])[H])[H])([H])([H])[H]

>  <h>  (29) 
<NA>

>  <Training>  (29) 
True

>  <Success>  (29) 
True

>  <enamine_searched>  (29) 
False

>  <enamine_id>  (29) 
nan

$$$$

     RDKit          3D

 58 63  0  0  0  0  0  0  0  0999 V2000
   -7.0228   -4.7772  -23.1935 C   0  0  0  0  0  0  0  0  0  0  0  0
   -7.2576   -3.5267  -22.3533 C   0  0  1  0  0  0  0  0  0  0  0  0
   -6.2125   -3.2402  -21.2579 C   0  0  0  0  0  0  0  0  0  0  0  0
   -6.3950   -1.8171  -21.0110 N   0  0  0  0  0  0  0  0  0  0  0  0
   -5.8758   -1.0905  -19.9171 C   0  0  0  0  0  0  0  0  0  0  0  0
   -6.2998   -1.3566  -18.6393 C   0  0  0  0  0  0  0  0  0  0  0  0
   -5.8757   -0.6990  -17.5329 N   0  0  0  0  0  0  0  0  0  0  0  0
   -4.9703    0.2355  -17.6993 C   0  0  0  0  0  0  0  0  0  0  0  0
   -4.4035    0.5768  -18.9585 C   0  0  0  0  0  0  0  0  0  0  0  0
   -3.3692    1.5434  -19.0716 C   0  0  0  0  0  0  0  0  0  0  0  0
   -2.9008    1.9144  -20.3007 C   0  0  0  0  0  0  0  0  0  0  0  0
   -3.4278    1.3250  -21.4731 C   0  0  0  0  0  0  0  0  0  0  0  0
   -4.3868    0.3499  -21.3841 C   0  0  0  0  0  0  0  0  0  0  0  0
   -4.8955   -0.0616  -20.1166 C   0  0  0  0  0  0  0  0  0  0  0  0
   -4.7827   -0.0979  -22.2920 H   0  0  0  0  0  0  0  0  0  0  0  0
   -3.0738    1.6511  -22.4481 H   0  0  0  0  0  0  0  0  0  0  0  0
   -2.1283    2.6710  -20.3869 H   0  0  0  0  0  0  0  0  0  0  0  0
   -2.9722    1.9815  -18.1607 H   0  0  0  0  0  0  0  0  0  0  0  0
   -4.6390    0.7791  -16.8151 H   0  0  0  0  0  0  0  0  0  0  0  0
   -7.0507   -2.1273  -18.4677 H   0  0  0  0  0  0  0  0  0  0  0  0
   -7.1197   -1.1853  -21.9958 C   0  0  0  0  0  0  0  0  0  0  0  0
   -7.5178   -0.0443  -21.9369 O   0  0  0  0  0  0  0  0  0  0  0  0
   -7.3290   -2.1931  -23.1510 C   0  0  1  0  0  0  0  0  0  0  0  0
   -6.1689   -2.1152  -24.1847 C   0  0  0  0  0  0  0  0  0  0  0  0
   -6.2019   -0.9089  -24.9966 N   0  0  0  0  0  0  0  0  0  0  0  0
   -4.9540   -0.4432  -25.6052 C   0  0  0  0  0  0  0  0  0  0  0  0
   -4.8017   -0.8330  -27.0595 C   0  0  0  0  0  0  0  0  0  0  0  0
   -5.0875    0.0674  -28.0329 C   0  0  0  0  0  0  0  0  0  0  0  0
   -5.0529   -0.3096  -29.4231 C   0  0  0  0  0  0  0  0  0  0  0  0
   -5.3358    0.3591  -30.3962 O   0  0  0  0  0  0  0  0  0  0  0  0
   -4.6355   -1.6488  -29.5833 N   0  0  0  0  0  0  0  0  0  0  0  0
   -4.3274   -2.4747  -28.5501 C   0  0  0  0  0  0  0  0  0  0  0  0
   -4.3977   -2.1303  -27.3039 N   0  0  0  0  0  0  0  0  0  0  0  0
   -4.0031   -3.4816  -28.8174 H   0  0  0  0  0  0  0  0  0  0  0  0
   -4.5650   -1.9629  -30.5457 H   0  0  0  0  0  0  0  0  0  0  0  0
   -5.4185    1.0665  -27.7860 H   0  0  0  0  0  0  0  0  0  0  0  0
   -4.1300   -0.8810  -25.0392 H   0  0  0  0  0  0  0  0  0  0  0  0
   -4.9113    0.6471  -25.5014 H   0  0  0  0  0  0  0  0  0  0  0  0
   -7.3633   -0.3024  -25.3762 C   0  0  0  0  0  0  0  0  0  0  0  0
   -7.3820    0.6792  -26.1141 O   0  0  0  0  0  0  0  0  0  0  0  0
   -8.6343   -0.9031  -24.8700 C   0  0  0  0  0  0  0  0  0  0  0  0
   -9.8368   -0.4287  -25.3925 C   0  0  0  0  0  0  0  0  0  0  0  0
  -11.0484   -0.8460  -24.8819 C   0  0  0  0  0  0  0  0  0  0  0  0
  -11.0266   -1.7576  -23.8264 C   0  0  0  0  0  0  0  0  0  0  0  0
  -12.1812   -2.1632  -23.2691 F   0  0  0  0  0  0  0  0  0  0  0  0
   -9.8502   -2.2468  -23.3001 C   0  0  0  0  0  0  0  0  0  0  0  0
   -8.6242   -1.8452  -23.8345 C   0  0  0  0  0  0  0  0  0  0  0  0
   -9.9084   -2.9200  -22.4532 H   0  0  0  0  0  0  0  0  0  0  0  0
  -11.9775   -0.4865  -25.3091 H   0  0  0  0  0  0  0  0  0  0  0  0
   -9.8044    0.3015  -26.1917 H   0  0  0  0  0  0  0  0  0  0  0  0
   -6.1689   -2.9907  -24.8470 H   0  0  0  0  0  0  0  0  0  0  0  0
   -5.2170   -2.1419  -23.6449 H   0  0  0  0  0  0  0  0  0  0  0  0
   -5.1988   -3.4545  -21.6239 H   0  0  0  0  0  0  0  0  0  0  0  0
   -6.3652   -3.7965  -20.3296 H   0  0  0  0  0  0  0  0  0  0  0  0
   -8.2120   -3.6245  -21.8316 H   0  0  0  0  0  0  0  0  0  0  0  0
   -7.0137   -5.6872  -22.5865 H   0  0  0  0  0  0  0  0  0  0  0  0
   -7.8124   -4.8859  -23.9474 H   0  0  0  0  0  0  0  0  0  0  0  0
   -6.0640   -4.7271  -23.7204 H   0  0  0  0  0  0  0  0  0  0  0  0
  1  2  1  0
  2  3  1  0
  3  4  1  0
  4  5  1  0
  5  6  2  0
  6  7  1  0
  7  8  2  0
  8  9  1  0
  9 10  2  0
 10 11  1  0
 11 12  2  0
 12 13  1  0
 13 14  2  0
 13 15  1  0
 12 16  1  0
 11 17  1  0
 10 18  1  0
  8 19  1  0
  6 20  1  0
  4 21  1  0
 21 22  2  0
 21 23  1  0
 23 24  1  6
 24 25  1  0
 25 26  1  0
 26 27  1  0
 27 28  2  0
 28 29  1  0
 29 30  2  0
 29 31  1  0
 31 32  1  0
 32 33  2  0
 32 34  1  0
 31 35  1  0
 28 36  1  0
 26 37  1  0
 26 38  1  0
 25 39  1  0
 39 40  2  0
 39 41  1  0
 41 42  2  0
 42 43  1  0
 43 44  2  0
 44 45  1  0
 44 46  1  0
 46 47  2  0
 46 48  1  0
 43 49  1  0
 42 50  1  0
 24 51  1  0
 24 52  1  0
  3 53  1  0
  3 54  1  0
  2 55  1  1
  1 56  1  0
  1 57  1  0
  1 58  1  0
 23  2  1  0
 33 27  1  0
 47 41  1  0
 14  5  1  0
 47 23  1  0
 14  9  1  0
M  END
>  <cnnaffinities>  (30) 
[6.10431]

>  <score>  (30) 
6.10431

>  <index>  (30) 
30

>  <Smiles>  (30) 
C([C@]1(C(N(c2c(nc(c3c(c(c(c(c23)[H])[H])[H])[H])[H])[H])C(=O)[C@]21C(N(C(c1c(c(=O)n(c(n1)[H])[H])[H])([H])[H])C(=O)c1c(c(c(F)c(c21)[H])[H])[H])([H])[H])([H])[H])[H])([H])([H])[H]

>  <h>  (30) 
<NA>

>  <Training>  (30) 
True

>  <Success>  (30) 
True

>  <enamine_searched>  (30) 
False

>  <enamine_id>  (30) 
nan

$$$$

     RDKit          3D

 66 71  0  0  0  0  0  0  0  0999 V2000
   -6.6947    2.7673  -22.1300 C   0  0  0  0  0  0  0  0  0  0  0  0
   -7.2126    2.0136  -23.2581 N   0  0  0  0  0  0  0  0  0  0  0  0
   -6.3899    1.4356  -24.1593 C   0  0  0  0  0  0  0  0  0  0  0  0
   -5.1880    1.6586  -24.2307 O   0  0  0  0  0  0  0  0  0  0  0  0
   -7.0839    0.4281  -25.0847 C   0  0  0  0  0  0  0  0  0  0  0  0
   -7.9017   -0.5501  -24.3751 N   0  0  0  0  0  0  0  0  0  0  0  0
   -7.3927   -1.8491  -23.9789 C   0  0  0  0  0  0  0  0  0  0  0  0
   -7.9628   -2.3225  -22.6072 C   0  0  2  0  0  0  0  0  0  0  0  0
   -7.5352   -1.4075  -21.4307 C   0  0  0  0  0  0  0  0  0  0  0  0
   -8.1266   -0.4472  -20.9855 O   0  0  0  0  0  0  0  0  0  0  0  0
   -6.3528   -1.9160  -20.9245 N   0  0  0  0  0  0  0  0  0  0  0  0
   -5.6593   -1.2713  -19.8741 C   0  0  0  0  0  0  0  0  0  0  0  0
   -5.8872   -1.6722  -18.5816 C   0  0  0  0  0  0  0  0  0  0  0  0
   -5.3337   -1.0982  -17.4889 N   0  0  0  0  0  0  0  0  0  0  0  0
   -4.5468   -0.0694  -17.6922 C   0  0  0  0  0  0  0  0  0  0  0  0
   -4.2214    0.4537  -18.9743 C   0  0  0  0  0  0  0  0  0  0  0  0
   -3.3962    1.5985  -19.1304 C   0  0  0  0  0  0  0  0  0  0  0  0
   -3.0510    2.0492  -20.3737 C   0  0  0  0  0  0  0  0  0  0  0  0
   -3.5165    1.3732  -21.5196 C   0  0  0  0  0  0  0  0  0  0  0  0
   -4.3472    0.2849  -21.3958 C   0  0  0  0  0  0  0  0  0  0  0  0
   -4.7527   -0.1881  -20.1177 C   0  0  0  0  0  0  0  0  0  0  0  0
   -4.7153   -0.1982  -22.2942 H   0  0  0  0  0  0  0  0  0  0  0  0
   -3.2413    1.7236  -22.5084 H   0  0  0  0  0  0  0  0  0  0  0  0
   -2.4202    2.9268  -20.4823 H   0  0  0  0  0  0  0  0  0  0  0  0
   -3.0591    2.1099  -18.2373 H   0  0  0  0  0  0  0  0  0  0  0  0
   -4.1138    0.4002  -16.8140 H   0  0  0  0  0  0  0  0  0  0  0  0
   -6.5752   -2.4919  -18.3811 H   0  0  0  0  0  0  0  0  0  0  0  0
   -6.0005   -3.2204  -21.4496 C   0  0  0  0  0  0  0  0  0  0  0  0
   -7.2885   -3.6524  -22.1655 C   0  0  2  0  0  0  0  0  0  0  0  0
   -6.9868   -4.6836  -23.2565 C   0  0  0  0  0  0  0  0  0  0  0  0
   -6.3865   -5.8968  -22.7272 N   0  0  0  0  0  0  0  0  0  0  0  0
   -5.0689   -6.2027  -22.8997 C   0  0  0  0  0  0  0  0  0  0  0  0
   -4.5821   -7.5172  -22.7416 C   0  0  0  0  0  0  0  0  0  0  0  0
   -3.2332   -7.6976  -22.9440 C   0  0  0  0  0  0  0  0  0  0  0  0
   -2.3848   -6.6990  -23.2449 N   0  0  0  0  0  0  0  0  0  0  0  0
   -2.9534   -5.5115  -23.3615 C   0  0  0  0  0  0  0  0  0  0  0  0
   -4.2395   -5.2035  -23.2233 N   0  0  0  0  0  0  0  0  0  0  0  0
   -2.2904   -4.6784  -23.5887 H   0  0  0  0  0  0  0  0  0  0  0  0
   -2.7823   -8.6860  -22.8617 H   0  0  0  0  0  0  0  0  0  0  0  0
   -5.2468   -8.3398  -22.4792 H   0  0  0  0  0  0  0  0  0  0  0  0
   -7.0032   -6.6676  -22.5374 H   0  0  0  0  0  0  0  0  0  0  0  0
   -6.2620   -4.2576  -23.9560 H   0  0  0  0  0  0  0  0  0  0  0  0
   -7.9081   -4.9272  -23.7972 H   0  0  0  0  0  0  0  0  0  0  0  0
   -7.9505   -4.1024  -21.4187 H   0  0  0  0  0  0  0  0  0  0  0  0
   -5.1547   -3.1552  -22.1473 H   0  0  0  0  0  0  0  0  0  0  0  0
   -5.7097   -3.9363  -20.6744 H   0  0  0  0  0  0  0  0  0  0  0  0
   -9.4668   -2.3052  -22.7332 C   0  0  0  0  0  0  0  0  0  0  0  0
  -10.3071   -3.0064  -21.8593 C   0  0  0  0  0  0  0  0  0  0  0  0
  -11.6793   -2.8869  -22.0179 C   0  0  0  0  0  0  0  0  0  0  0  0
  -12.8189   -3.4325  -20.8283 Cl  0  0  0  0  0  0  0  0  0  0  0  0
  -12.2383   -2.1894  -23.0824 C   0  0  0  0  0  0  0  0  0  0  0  0
  -11.4138   -1.4110  -23.8640 C   0  0  0  0  0  0  0  0  0  0  0  0
  -10.0486   -1.3874  -23.6179 C   0  0  0  0  0  0  0  0  0  0  0  0
   -9.2260   -0.2869  -24.2139 C   0  0  0  0  0  0  0  0  0  0  0  0
   -9.6922    0.8153  -24.4931 O   0  0  0  0  0  0  0  0  0  0  0  0
  -11.8087   -0.7111  -24.5877 H   0  0  0  0  0  0  0  0  0  0  0  0
  -13.3163   -2.1890  -23.1945 H   0  0  0  0  0  0  0  0  0  0  0  0
   -9.9086   -3.5877  -21.0366 H   0  0  0  0  0  0  0  0  0  0  0  0
   -7.7153   -2.5835  -24.7306 H   0  0  0  0  0  0  0  0  0  0  0  0
   -6.2992   -1.8230  -23.9480 H   0  0  0  0  0  0  0  0  0  0  0  0
   -6.3269   -0.0518  -25.7071 H   0  0  0  0  0  0  0  0  0  0  0  0
   -7.7491    0.9911  -25.7431 H   0  0  0  0  0  0  0  0  0  0  0  0
   -8.2062    1.8358  -23.3541 H   0  0  0  0  0  0  0  0  0  0  0  0
   -7.4314    3.5144  -21.8226 H   0  0  0  0  0  0  0  0  0  0  0  0
   -5.7689    3.2763  -22.4231 H   0  0  0  0  0  0  0  0  0  0  0  0
   -6.4639    2.1099  -21.2762 H   0  0  0  0  0  0  0  0  0  0  0  0
  1  2  1  0
  2  3  1  0
  3  4  2  0
  3  5  1  0
  5  6  1  0
  6  7  1  0
  8  7  1  6
  8  9  1  0
  9 10  2  0
  9 11  1  0
 11 12  1  0
 12 13  2  0
 13 14  1  0
 14 15  2  0
 15 16  1  0
 16 17  2  0
 17 18  1  0
 18 19  2  0
 19 20  1  0
 20 21  2  0
 20 22  1  0
 19 23  1  0
 18 24  1  0
 17 25  1  0
 15 26  1  0
 13 27  1  0
 11 28  1  0
 28 29  1  0
 29 30  1  0
 30 31  1  0
 31 32  1  0
 32 33  2  0
 33 34  1  0
 34 35  2  0
 35 36  1  0
 36 37  2  0
 36 38  1  0
 34 39  1  0
 33 40  1  0
 31 41  1  0
 30 42  1  0
 30 43  1  0
 29 44  1  1
 28 45  1  0
 28 46  1  0
  8 47  1  0
 47 48  2  0
 48 49  1  0
 49 50  1  0
 49 51  2  0
 51 52  1  0
 52 53  2  0
 53 54  1  0
 54 55  2  0
 52 56  1  0
 51 57  1  0
 48 58  1  0
  7 59  1  0
  7 60  1  0
  5 61  1  0
  5 62  1  0
  2 63  1  0
  1 64  1  0
  1 65  1  0
  1 66  1  0
 54  6  1  0
 29  8  1  0
 37 32  1  0
 53 47  1  0
 21 12  1  0
 21 16  1  0
M  END
>  <cnnaffinities>  (31) 
[6.85954, 6.39449]

>  <score>  (31) 
6.85954

>  <index>  (31) 
31

>  <Smiles>  (31) 
C(N(C(=O)C(N1C([C@@]2(C(=O)N(c3c(nc(c4c(c(c(c(c34)[H])[H])[H])[H])[H])[H])C([C@@]2(C(N(c2c(c(nc(n2)[H])[H])[H])[H])([H])[H])[H])([H])[H])c2c(c(Cl)c(c(c2C1=O)[H])[H])[H])([H])[H])([H])[H])[H])([H])([H])[H]

>  <h>  (31) 
<NA>

>  <Training>  (31) 
True

>  <Success>  (31) 
True

>  <enamine_searched>  (31) 
False

>  <enamine_id>  (31) 
nan

$$$$

     RDKit          3D

 57 62  0  0  0  0  0  0  0  0999 V2000
  -10.2356   -2.9722  -22.0717 C   0  0  0  0  0  0  0  0  0  0  0  0
   -9.1649   -2.0179  -22.6353 C   0  0  1  0  0  0  0  0  0  0  0  0
   -8.6886   -1.0409  -21.5377 C   0  0  0  0  0  0  0  0  0  0  0  0
   -7.3411   -1.4628  -21.2137 N   0  0  0  0  0  0  0  0  0  0  0  0
   -6.5651   -0.8628  -20.1903 C   0  0  0  0  0  0  0  0  0  0  0  0
   -6.8965   -1.0620  -18.8742 C   0  0  0  0  0  0  0  0  0  0  0  0
   -6.2122   -0.5519  -17.8238 N   0  0  0  0  0  0  0  0  0  0  0  0
   -5.1757    0.2073  -18.0888 C   0  0  0  0  0  0  0  0  0  0  0  0
   -4.7346    0.5214  -19.4065 C   0  0  0  0  0  0  0  0  0  0  0  0
   -3.6109    1.3616  -19.6357 C   0  0  0  0  0  0  0  0  0  0  0  0
   -3.2255    1.6648  -20.9121 C   0  0  0  0  0  0  0  0  0  0  0  0
   -3.9518    1.1536  -22.0124 C   0  0  0  0  0  0  0  0  0  0  0  0
   -5.0412    0.3414  -21.8191 C   0  0  0  0  0  0  0  0  0  0  0  0
   -5.4504   -0.0149  -20.4996 C   0  0  0  0  0  0  0  0  0  0  0  0
   -5.5939   -0.0413  -22.6768 H   0  0  0  0  0  0  0  0  0  0  0  0
   -3.6380    1.4041  -23.0214 H   0  0  0  0  0  0  0  0  0  0  0  0
   -2.3683    2.3087  -21.0895 H   0  0  0  0  0  0  0  0  0  0  0  0
   -3.0802    1.7601  -18.7748 H   0  0  0  0  0  0  0  0  0  0  0  0
   -4.6308    0.6111  -17.2362 H   0  0  0  0  0  0  0  0  0  0  0  0
   -7.7548   -1.6803  -18.6155 H   0  0  0  0  0  0  0  0  0  0  0  0
   -6.8180   -2.4049  -22.0669 C   0  0  0  0  0  0  0  0  0  0  0  0
   -5.7117   -2.8956  -21.9554 O   0  0  0  0  0  0  0  0  0  0  0  0
   -7.8584   -2.6886  -23.1761 C   0  0  1  0  0  0  0  0  0  0  0  0
   -7.9944   -4.2106  -23.3936 C   0  0  0  0  0  0  0  0  0  0  0  0
   -6.7932   -4.7778  -23.9799 N   0  0  0  0  0  0  0  0  0  0  0  0
   -6.2090   -5.9496  -23.3323 C   0  0  0  0  0  0  0  0  0  0  0  0
   -7.1738   -7.0868  -23.3332 C   0  0  0  0  0  0  0  0  0  0  0  0
   -7.8335   -7.6252  -22.3322 N   0  0  0  0  0  0  0  0  0  0  0  0
   -8.7780   -8.4052  -22.9007 N   0  0  0  0  0  0  0  0  0  0  0  0
   -8.7020   -8.3710  -24.1789 N   0  0  0  0  0  0  0  0  0  0  0  0
   -7.6735   -7.5646  -24.4814 N   0  0  0  0  0  0  0  0  0  0  0  0
   -7.1821   -7.4187  -25.8336 C   0  0  0  0  0  0  0  0  0  0  0  0
   -7.4507   -6.4388  -26.2357 H   0  0  0  0  0  0  0  0  0  0  0  0
   -6.0937   -7.5318  -25.8617 H   0  0  0  0  0  0  0  0  0  0  0  0
   -7.6641   -8.2151  -26.3908 H   0  0  0  0  0  0  0  0  0  0  0  0
   -5.9493   -5.7106  -22.2938 H   0  0  0  0  0  0  0  0  0  0  0  0
   -5.3215   -6.1959  -23.9186 H   0  0  0  0  0  0  0  0  0  0  0  0
   -6.2195   -4.2337  -25.0909 C   0  0  0  0  0  0  0  0  0  0  0  0
   -5.4119   -4.8358  -25.7918 O   0  0  0  0  0  0  0  0  0  0  0  0
   -6.6136   -2.8202  -25.3933 C   0  0  0  0  0  0  0  0  0  0  0  0
   -6.1307   -2.2519  -26.5714 C   0  0  0  0  0  0  0  0  0  0  0  0
   -6.3620   -0.9190  -26.8457 C   0  0  0  0  0  0  0  0  0  0  0  0
   -7.0680   -0.1683  -25.9150 C   0  0  0  0  0  0  0  0  0  0  0  0
   -7.2719    1.1358  -26.1708 F   0  0  0  0  0  0  0  0  0  0  0  0
   -7.5642   -0.7074  -24.7455 C   0  0  0  0  0  0  0  0  0  0  0  0
   -7.3653   -2.0690  -24.4808 C   0  0  0  0  0  0  0  0  0  0  0  0
   -8.0908   -0.0441  -24.0665 H   0  0  0  0  0  0  0  0  0  0  0  0
   -5.9939   -0.4394  -27.7430 H   0  0  0  0  0  0  0  0  0  0  0  0
   -5.5547   -2.8906  -27.2326 H   0  0  0  0  0  0  0  0  0  0  0  0
   -8.8665   -4.4019  -24.0403 H   0  0  0  0  0  0  0  0  0  0  0  0
   -8.1361   -4.7066  -22.4339 H   0  0  0  0  0  0  0  0  0  0  0  0
   -8.7068    0.0107  -21.8603 H   0  0  0  0  0  0  0  0  0  0  0  0
   -9.3339   -1.1234  -20.6669 H   0  0  0  0  0  0  0  0  0  0  0  0
   -9.6446   -1.4693  -23.4556 H   0  0  0  0  0  0  0  0  0  0  0  0
  -10.6187   -3.6517  -22.8384 H   0  0  0  0  0  0  0  0  0  0  0  0
  -11.0891   -2.3973  -21.6933 H   0  0  0  0  0  0  0  0  0  0  0  0
   -9.8499   -3.5781  -21.2429 H   0  0  0  0  0  0  0  0  0  0  0  0
  1  2  1  0
  2  3  1  0
  3  4  1  0
  4  5  1  0
  5  6  2  0
  6  7  1  0
  7  8  2  0
  8  9  1  0
  9 10  2  0
 10 11  1  0
 11 12  2  0
 12 13  1  0
 13 14  2  0
 13 15  1  0
 12 16  1  0
 11 17  1  0
 10 18  1  0
  8 19  1  0
  6 20  1  0
  4 21  1  0
 21 22  2  0
 21 23  1  0
 23 24  1  6
 24 25  1  0
 25 26  1  0
 26 27  1  0
 27 28  2  0
 28 29  1  0
 29 30  2  0
 30 31  1  0
 31 32  1  0
 32 33  1  0
 32 34  1  0
 32 35  1  0
 26 36  1  0
 26 37  1  0
 25 38  1  0
 38 39  2  0
 38 40  1  0
 40 41  2  0
 41 42  1  0
 42 43  2  0
 43 44  1  0
 43 45  1  0
 45 46  2  0
 45 47  1  0
 42 48  1  0
 41 49  1  0
 24 50  1  0
 24 51  1  0
  3 52  1  0
  3 53  1  0
  2 54  1  6
  1 55  1  0
  1 56  1  0
  1 57  1  0
 23  2  1  0
 31 27  1  0
 46 40  1  0
 14  5  1  0
 46 23  1  0
 14  9  1  0
M  END
>  <cnnaffinities>  (32) 
[6.52053]

>  <score>  (32) 
6.52053

>  <index>  (32) 
32

>  <Smiles>  (32) 
C([C@]1(C(N(c2c(nc(c3c(c(c(c(c23)[H])[H])[H])[H])[H])[H])C(=O)[C@]21C(N(C(c1nnnn1C([H])([H])[H])([H])[H])C(=O)c1c(c(c(F)c(c21)[H])[H])[H])([H])[H])([H])[H])[H])([H])([H])[H]

>  <h>  (32) 
<NA>

>  <Training>  (32) 
True

>  <Success>  (32) 
True

>  <enamine_searched>  (32) 
False

>  <enamine_id>  (32) 
nan

$$$$

     RDKit          3D

 66 70  0  0  0  0  0  0  0  0999 V2000
   -8.2518   -5.5015  -27.8095 C   0  0  0  0  0  0  0  0  0  0  0  0
   -8.3948   -4.0789  -27.5840 N   0  0  0  0  0  0  0  0  0  0  0  0
   -7.5541   -3.4242  -26.7346 C   0  0  0  0  0  0  0  0  0  0  0  0
   -6.5409   -3.9241  -26.2662 O   0  0  0  0  0  0  0  0  0  0  0  0
   -7.9547   -1.9688  -26.4357 C   0  0  0  0  0  0  0  0  0  0  0  0
   -8.4943   -1.7489  -25.1088 N   0  0  0  0  0  0  0  0  0  0  0  0
   -7.5674   -1.4749  -24.0209 C   0  0  0  0  0  0  0  0  0  0  0  0
   -8.2536   -2.0951  -22.7590 C   0  0  2  0  0  0  0  0  0  0  0  0
   -7.9899   -1.1863  -21.5546 C   0  0  0  0  0  0  0  0  0  0  0  0
   -8.6361   -0.2409  -21.1612 O   0  0  0  0  0  0  0  0  0  0  0  0
   -6.8057   -1.6443  -21.0010 N   0  0  0  0  0  0  0  0  0  0  0  0
   -6.1582   -0.9459  -19.9570 C   0  0  0  0  0  0  0  0  0  0  0  0
   -6.5761   -1.1344  -18.6678 C   0  0  0  0  0  0  0  0  0  0  0  0
   -6.0023   -0.5571  -17.5860 N   0  0  0  0  0  0  0  0  0  0  0  0
   -5.0025    0.2625  -17.8032 C   0  0  0  0  0  0  0  0  0  0  0  0
   -4.4774    0.5619  -19.0936 C   0  0  0  0  0  0  0  0  0  0  0  0
   -3.4083    1.4771  -19.2771 C   0  0  0  0  0  0  0  0  0  0  0  0
   -2.9272    1.7355  -20.5312 C   0  0  0  0  0  0  0  0  0  0  0  0
   -3.4894    1.0952  -21.6579 C   0  0  0  0  0  0  0  0  0  0  0  0
   -4.5335    0.2161  -21.5071 C   0  0  0  0  0  0  0  0  0  0  0  0
   -5.0574   -0.0698  -20.2164 C   0  0  0  0  0  0  0  0  0  0  0  0
   -4.9744   -0.2564  -22.3802 H   0  0  0  0  0  0  0  0  0  0  0  0
   -3.0985    1.3094  -22.6489 H   0  0  0  0  0  0  0  0  0  0  0  0
   -2.1171    2.4456  -20.6727 H   0  0  0  0  0  0  0  0  0  0  0  0
   -2.9988    1.9729  -18.4011 H   0  0  0  0  0  0  0  0  0  0  0  0
   -4.5514    0.7339  -16.9301 H   0  0  0  0  0  0  0  0  0  0  0  0
   -7.4167   -1.7969  -18.4757 H   0  0  0  0  0  0  0  0  0  0  0  0
   -6.3332   -2.9074  -21.5622 C   0  0  0  0  0  0  0  0  0  0  0  0
   -7.6015   -3.4172  -22.2503 C   0  0  2  0  0  0  0  0  0  0  0  0
   -7.4793   -4.5058  -23.2979 C   0  0  0  0  0  0  0  0  0  0  0  0
   -7.3145   -5.7396  -22.6343 O   0  0  0  0  0  0  0  0  0  0  0  0
   -7.1454   -6.8350  -23.5162 C   0  0  0  0  0  0  0  0  0  0  0  0
   -6.5283   -7.9436  -22.6759 C   0  0  0  0  0  0  0  0  0  0  0  0
   -5.7119   -7.5369  -22.0740 H   0  0  0  0  0  0  0  0  0  0  0  0
   -6.1300   -8.7506  -23.2954 H   0  0  0  0  0  0  0  0  0  0  0  0
   -7.2836   -8.3562  -21.9997 H   0  0  0  0  0  0  0  0  0  0  0  0
   -8.4704   -7.2676  -24.1518 C   0  0  0  0  0  0  0  0  0  0  0  0
   -8.3095   -8.1046  -24.8398 H   0  0  0  0  0  0  0  0  0  0  0  0
   -8.9391   -6.4559  -24.7214 H   0  0  0  0  0  0  0  0  0  0  0  0
   -9.1784   -7.5799  -23.3774 H   0  0  0  0  0  0  0  0  0  0  0  0
   -6.4453   -6.5341  -24.3171 H   0  0  0  0  0  0  0  0  0  0  0  0
   -8.3873   -4.5282  -23.9207 H   0  0  0  0  0  0  0  0  0  0  0  0
   -6.6394   -4.3093  -23.9811 H   0  0  0  0  0  0  0  0  0  0  0  0
   -8.2266   -3.8333  -21.4485 H   0  0  0  0  0  0  0  0  0  0  0  0
   -5.5170   -2.7551  -22.2894 H   0  0  0  0  0  0  0  0  0  0  0  0
   -5.9719   -3.5725  -20.7728 H   0  0  0  0  0  0  0  0  0  0  0  0
   -9.6603   -2.2741  -23.1898 C   0  0  0  0  0  0  0  0  0  0  0  0
  -10.6263   -2.6513  -22.2795 C   0  0  0  0  0  0  0  0  0  0  0  0
  -12.0531   -2.5520  -22.3393 C   0  0  0  0  0  0  0  0  0  0  0  0
  -12.7730   -3.3423  -20.8596 Cl  0  0  0  0  0  0  0  0  0  0  0  0
  -12.9817   -1.9861  -23.0512 C   0  0  0  0  0  0  0  0  0  0  0  0
  -11.5527   -1.4219  -24.0256 C   0  0  0  0  0  0  0  0  0  0  0  0
  -11.4662   -1.2052  -23.8900 C   0  0  0  0  0  0  0  0  0  0  0  0
   -9.6887   -2.4163  -24.6649 C   0  0  0  0  0  0  0  0  0  0  0  0
  -10.1529   -3.3197  -25.3802 O   0  0  0  0  0  0  0  0  0  0  0  0
  -10.9201   -1.1921  -24.9591 H   0  0  0  0  0  0  0  0  0  0  0  0
  -14.0783   -2.0049  -23.0190 H   0  0  0  0  0  0  0  0  0  0  0  0
  -10.2666   -3.1269  -21.3682 H   0  0  0  0  0  0  0  0  0  0  0  0
   -6.5840   -1.9293  -24.2365 H   0  0  0  0  0  0  0  0  0  0  0  0
   -7.4125   -0.3894  -23.8869 H   0  0  0  0  0  0  0  0  0  0  0  0
   -8.6281   -1.5964  -27.2190 H   0  0  0  0  0  0  0  0  0  0  0  0
   -7.0362   -1.3764  -26.4880 H   0  0  0  0  0  0  0  0  0  0  0  0
   -9.3354   -3.7136  -27.6308 H   0  0  0  0  0  0  0  0  0  0  0  0
   -8.5480   -6.0977  -26.9336 H   0  0  0  0  0  0  0  0  0  0  0  0
   -8.8700   -5.7890  -28.6642 H   0  0  0  0  0  0  0  0  0  0  0  0
   -7.2069   -5.7260  -28.0340 H   0  0  0  0  0  0  0  0  0  0  0  0
  1  2  1  0
  2  3  1  0
  3  4  2  0
  3  5  1  0
  5  6  1  0
  6  7  1  0
  8  7  1  6
  8  9  1  0
  9 10  2  0
  9 11  1  0
 11 12  1  0
 12 13  2  0
 13 14  1  0
 14 15  2  0
 15 16  1  0
 16 17  2  0
 17 18  1  0
 18 19  2  0
 19 20  1  0
 20 21  2  0
 20 22  1  0
 19 23  1  0
 18 24  1  0
 17 25  1  0
 15 26  1  0
 13 27  1  0
 11 28  1  0
 28 29  1  0
 29 30  1  0
 30 31  1  0
 31 32  1  0
 32 33  1  0
 33 34  1  0
 33 35  1  0
 33 36  1  0
 32 37  1  0
 37 38  1  0
 37 39  1  0
 37 40  1  0
 32 41  1  0
 30 42  1  0
 30 43  1  0
 29 44  1  1
 28 45  1  0
 28 46  1  0
  8 47  1  0
 47 48  2  0
 48 49  1  0
 49 50  1  0
 49 51  2  0
 51 52  1  0
 52 53  2  0
 53 54  1  0
 54 55  2  0
 52 56  1  0
 51 57  1  0
 48 58  1  0
  7 59  1  0
  7 60  1  0
  5 61  1  0
  5 62  1  0
  2 63  1  0
  1 64  1  0
  1 65  1  0
  1 66  1  0
 54  6  1  0
 29  8  1  0
 53 47  1  0
 21 12  1  0
 21 16  1  0
M  END
>  <cnnaffinities>  (33) 
[6.87603]

>  <score>  (33) 
6.87603

>  <index>  (33) 
34

>  <Smiles>  (33) 
C(N(C(=O)C(N1C([C@@]2(C(=O)N(c3c(nc(c4c(c(c(c(c34)[H])[H])[H])[H])[H])[H])C([C@@]2(C(OC(C([H])([H])[H])(C([H])([H])[H])[H])([H])[H])[H])([H])[H])c2c(c(Cl)c(c(c2C1=O)[H])[H])[H])([H])[H])([H])[H])[H])([H])([H])[H]

>  <h>  (33) 
<NA>

>  <Training>  (33) 
True

>  <Success>  (33) 
True

>  <enamine_searched>  (33) 
False

>  <enamine_id>  (33) 
nan

$$$$

     RDKit          3D

 40 42  0  0  0  0  0  0  0  0999 V2000
   -5.5897   -2.9558  -21.6862 O   0  0  0  0  0  0  0  0  0  0  0  0
   -6.7948   -2.7931  -21.7769 C   0  0  0  0  0  0  0  0  0  0  0  0
   -7.4248   -1.4780  -21.2536 C   0  0  0  0  0  0  0  0  0  0  0  0
   -6.5816   -0.8228  -20.1792 C   0  0  0  0  0  0  0  0  0  0  0  0
   -6.8734   -1.0419  -18.8564 C   0  0  0  0  0  0  0  0  0  0  0  0
   -6.1854   -0.5469  -17.7962 N   0  0  0  0  0  0  0  0  0  0  0  0
   -5.1558    0.2244  -18.0614 C   0  0  0  0  0  0  0  0  0  0  0  0
   -4.7198    0.5352  -19.3801 C   0  0  0  0  0  0  0  0  0  0  0  0
   -3.5898    1.3632  -19.6176 C   0  0  0  0  0  0  0  0  0  0  0  0
   -3.1894    1.6355  -20.9003 C   0  0  0  0  0  0  0  0  0  0  0  0
   -3.8981    1.0914  -21.9910 C   0  0  0  0  0  0  0  0  0  0  0  0
   -4.9969    0.2908  -21.7861 C   0  0  0  0  0  0  0  0  0  0  0  0
   -5.4429   -0.0071  -20.4698 C   0  0  0  0  0  0  0  0  0  0  0  0
   -5.5150   -0.1335  -22.6383 H   0  0  0  0  0  0  0  0  0  0  0  0
   -3.5683    1.3094  -23.0032 H   0  0  0  0  0  0  0  0  0  0  0  0
   -2.3270    2.2699  -21.0861 H   0  0  0  0  0  0  0  0  0  0  0  0
   -3.0491    1.7774  -18.7705 H   0  0  0  0  0  0  0  0  0  0  0  0
   -4.5973    0.6302  -17.2165 H   0  0  0  0  0  0  0  0  0  0  0  0
   -7.7212   -1.6719  -18.5895 H   0  0  0  0  0  0  0  0  0  0  0  0
   -8.4251   -1.6810  -20.8440 H   0  0  0  0  0  0  0  0  0  0  0  0
   -7.5658   -0.7848  -22.0937 H   0  0  0  0  0  0  0  0  0  0  0  0
   -7.6209   -3.7681  -22.3126 N   0  0  0  0  0  0  0  0  0  0  0  0
   -8.9726   -3.5171  -22.8053 C   0  0  0  0  0  0  0  0  0  0  0  0
   -9.2855   -4.3297  -24.0629 C   0  0  0  0  0  0  0  0  0  0  0  0
   -9.0003   -5.8120  -23.8410 C   0  0  0  0  0  0  0  0  0  0  0  0
   -9.3171   -6.6352  -25.0765 C   0  0  0  0  0  0  0  0  0  0  0  0
   -9.1018   -7.9518  -24.8895 F   0  0  0  0  0  0  0  0  0  0  0  0
  -10.5967   -6.5017  -25.4736 F   0  0  0  0  0  0  0  0  0  0  0  0
   -8.5536   -6.2700  -26.1249 F   0  0  0  0  0  0  0  0  0  0  0  0
   -7.5538   -6.0058  -23.3943 C   0  0  0  0  0  0  0  0  0  0  0  0
   -7.2633   -5.1827  -22.1454 C   0  0  0  0  0  0  0  0  0  0  0  0
   -6.2045   -5.2573  -21.8932 H   0  0  0  0  0  0  0  0  0  0  0  0
   -7.8196   -5.6180  -21.3021 H   0  0  0  0  0  0  0  0  0  0  0  0
   -7.3543   -7.0664  -23.1957 H   0  0  0  0  0  0  0  0  0  0  0  0
   -6.8748   -5.7020  -24.1964 H   0  0  0  0  0  0  0  0  0  0  0  0
   -9.6718   -6.1921  -23.0672 H   0  0  0  0  0  0  0  0  0  0  0  0
   -8.6811   -3.9606  -24.8977 H   0  0  0  0  0  0  0  0  0  0  0  0
  -10.3347   -4.1815  -24.3457 H   0  0  0  0  0  0  0  0  0  0  0  0
   -9.0844   -2.4570  -23.0480 H   0  0  0  0  0  0  0  0  0  0  0  0
   -9.7223   -3.7510  -22.0343 H   0  0  0  0  0  0  0  0  0  0  0  0
  1  2  2  0
  2  3  1  0
  3  4  1  0
  4  5  2  0
  5  6  1  0
  6  7  2  0
  7  8  1  0
  8  9  2  0
  9 10  1  0
 10 11  2  0
 11 12  1  0
 12 13  2  0
 12 14  1  0
 11 15  1  0
 10 16  1  0
  9 17  1  0
  7 18  1  0
  5 19  1  0
  3 20  1  0
  3 21  1  0
  2 22  1  0
 22 23  1  0
 23 24  1  0
 24 25  1  0
 25 26  1  0
 26 27  1  0
 26 28  1  0
 26 29  1  0
 25 30  1  0
 30 31  1  0
 31 32  1  0
 31 33  1  0
 30 34  1  0
 30 35  1  0
 25 36  1  0
 24 37  1  0
 24 38  1  0
 23 39  1  0
 23 40  1  0
 13  4  1  0
 31 22  1  0
 13  8  1  0
M  END
>  <cnnaffinities>  (34) 
[5.41149, 5.41151, 5.41142, 5.41136]

>  <score>  (34) 
5.41149

>  <index>  (34) 
35

>  <Smiles>  (34) 
O=C(C(c1c(nc(c2c(c(c(c(c12)[H])[H])[H])[H])[H])[H])([H])[H])N1C(C(C(C(F)(F)F)(C(C1([H])[H])([H])[H])[H])([H])[H])([H])[H]

>  <h>  (34) 
<NA>

>  <Training>  (34) 
True

>  <Success>  (34) 
True

>  <enamine_searched>  (34) 
False

>  <enamine_id>  (34) 
nan

$$$$

     RDKit          3D

 47 50  0  0  0  0  0  0  0  0999 V2000
   -6.2363   -3.5706  -21.1792 O   0  0  0  0  0  0  0  0  0  0  0  0
   -6.6116   -2.6642  -21.8979 C   0  0  0  0  0  0  0  0  0  0  0  0
   -7.3834   -1.4743  -21.2882 C   0  0  0  0  0  0  0  0  0  0  0  0
   -6.5785   -0.8209  -20.1817 C   0  0  0  0  0  0  0  0  0  0  0  0
   -6.8724   -1.0472  -18.8624 C   0  0  0  0  0  0  0  0  0  0  0  0
   -6.1833   -0.5502  -17.7991 N   0  0  0  0  0  0  0  0  0  0  0  0
   -5.1574    0.2220  -18.0640 C   0  0  0  0  0  0  0  0  0  0  0  0
   -4.7225    0.5361  -19.3792 C   0  0  0  0  0  0  0  0  0  0  0  0
   -3.5905    1.3559  -19.6210 C   0  0  0  0  0  0  0  0  0  0  0  0
   -3.1885    1.6318  -20.8999 C   0  0  0  0  0  0  0  0  0  0  0  0
   -3.9047    1.0958  -21.9933 C   0  0  0  0  0  0  0  0  0  0  0  0
   -5.0058    0.3020  -21.7859 C   0  0  0  0  0  0  0  0  0  0  0  0
   -5.4479   -0.0001  -20.4711 C   0  0  0  0  0  0  0  0  0  0  0  0
   -5.5430   -0.0983  -22.6399 H   0  0  0  0  0  0  0  0  0  0  0  0
   -3.5816    1.3185  -23.0054 H   0  0  0  0  0  0  0  0  0  0  0  0
   -2.3267    2.2668  -21.0862 H   0  0  0  0  0  0  0  0  0  0  0  0
   -3.0551    1.7681  -18.7693 H   0  0  0  0  0  0  0  0  0  0  0  0
   -4.6056    0.6276  -17.2135 H   0  0  0  0  0  0  0  0  0  0  0  0
   -7.7208   -1.6701  -18.5862 H   0  0  0  0  0  0  0  0  0  0  0  0
   -8.3077   -1.8741  -20.8563 H   0  0  0  0  0  0  0  0  0  0  0  0
   -7.6785   -0.7406  -22.0462 H   0  0  0  0  0  0  0  0  0  0  0  0
   -6.3027   -2.6344  -23.2504 N   0  0  0  0  0  0  0  0  0  0  0  0
   -5.1367   -3.3828  -23.7021 C   0  0  0  0  0  0  0  0  0  0  0  0
   -4.3437   -2.5695  -24.7236 C   0  0  0  0  0  0  0  0  0  0  0  0
   -5.2360   -1.9743  -25.8283 C   0  0  0  0  0  0  0  0  0  0  0  0
   -6.6916   -2.3975  -25.6729 C   0  0  0  0  0  0  0  0  0  0  0  0
   -7.2267   -2.1221  -24.2635 C   0  0  1  0  0  0  0  0  0  0  0  0
   -8.6387   -2.6729  -24.1106 C   0  0  0  0  0  0  0  0  0  0  0  0
   -8.8647   -4.0467  -24.0158 C   0  0  0  0  0  0  0  0  0  0  0  0
  -10.1545   -4.5519  -23.8900 C   0  0  0  0  0  0  0  0  0  0  0  0
  -11.2450   -3.6872  -23.8654 C   0  0  0  0  0  0  0  0  0  0  0  0
  -11.0288   -2.3174  -23.9759 C   0  0  0  0  0  0  0  0  0  0  0  0
   -9.7361   -1.8151  -24.1073 C   0  0  0  0  0  0  0  0  0  0  0  0
   -9.5931   -0.7403  -24.2028 H   0  0  0  0  0  0  0  0  0  0  0  0
  -11.8610   -1.6244  -23.9381 H   0  0  0  0  0  0  0  0  0  0  0  0
  -12.2520   -4.0823  -23.7596 H   0  0  0  0  0  0  0  0  0  0  0  0
  -10.3059   -5.6243  -23.8076 H   0  0  0  0  0  0  0  0  0  0  0  0
   -8.0249   -4.7358  -24.0401 H   0  0  0  0  0  0  0  0  0  0  0  0
   -7.2758   -1.0340  -24.1415 H   0  0  0  0  0  0  0  0  0  0  0  0
   -6.8244   -3.4551  -25.9234 H   0  0  0  0  0  0  0  0  0  0  0  0
   -7.3121   -1.8552  -26.3879 H   0  0  0  0  0  0  0  0  0  0  0  0
   -4.8751   -2.2661  -26.8199 H   0  0  0  0  0  0  0  0  0  0  0  0
   -5.1771   -0.8801  -25.8071 H   0  0  0  0  0  0  0  0  0  0  0  0
   -3.8183   -1.7645  -24.2011 H   0  0  0  0  0  0  0  0  0  0  0  0
   -3.5715   -3.2085  -25.1582 H   0  0  0  0  0  0  0  0  0  0  0  0
   -5.4126   -4.3633  -24.1172 H   0  0  0  0  0  0  0  0  0  0  0  0
   -4.5336   -3.5920  -22.8224 H   0  0  0  0  0  0  0  0  0  0  0  0
  1  2  2  0
  2  3  1  0
  3  4  1  0
  4  5  2  0
  5  6  1  0
  6  7  2  0
  7  8  1  0
  8  9  2  0
  9 10  1  0
 10 11  2  0
 11 12  1  0
 12 13  2  0
 12 14  1  0
 11 15  1  0
 10 16  1  0
  9 17  1  0
  7 18  1  0
  5 19  1  0
  3 20  1  0
  3 21  1  0
  2 22  1  0
 22 23  1  0
 23 24  1  0
 24 25  1  0
 25 26  1  0
 26 27  1  0
 27 28  1  0
 28 29  2  0
 29 30  1  0
 30 31  2  0
 31 32  1  0
 32 33  2  0
 33 34  1  0
 32 35  1  0
 31 36  1  0
 30 37  1  0
 29 38  1  0
 27 39  1  1
 26 40  1  0
 26 41  1  0
 25 42  1  0
 25 43  1  0
 24 44  1  0
 24 45  1  0
 23 46  1  0
 23 47  1  0
 13  4  1  0
 27 22  1  0
 33 28  1  0
 13  8  1  0
M  END
>  <cnnaffinities>  (35) 
[5.74748, 5.74714, 5.64499, 5.64572, 5.59125, 5.59239, 5.20882, 5.20954, 5.70934, 5.70978]

>  <score>  (35) 
5.74748

>  <index>  (35) 
36

>  <Smiles>  (35) 
O=C(C(c1c(nc(c2c(c(c(c(c12)[H])[H])[H])[H])[H])[H])([H])[H])N1C(C(C(C([C@]1(c1c(c(c(c(c1[H])[H])[H])[H])[H])[H])([H])[H])([H])[H])([H])[H])([H])[H]

>  <h>  (35) 
<NA>

>  <Training>  (35) 
True

>  <Success>  (35) 
True

>  <enamine_searched>  (35) 
False

>  <enamine_id>  (35) 
nan

$$$$

     RDKit          3D

 56 60  0  0  0  0  0  0  0  0999 V2000
   -6.9725    3.1475  -22.0983 C   0  0  0  0  0  0  0  0  0  0  0  0
   -7.4821    2.4972  -23.2904 N   0  0  0  0  0  0  0  0  0  0  0  0
   -6.6162    1.8564  -24.1096 C   0  0  0  0  0  0  0  0  0  0  0  0
   -5.4032    2.0191  -24.0602 O   0  0  0  0  0  0  0  0  0  0  0  0
   -7.2476    0.8860  -25.1190 C   0  0  0  0  0  0  0  0  0  0  0  0
   -7.9046   -0.2236  -24.4567 N   0  0  0  0  0  0  0  0  0  0  0  0
   -7.0969   -1.3828  -24.1202 C   0  0  0  0  0  0  0  0  0  0  0  0
   -7.6211   -2.1209  -22.8527 C   0  0  2  0  0  0  0  0  0  0  0  0
   -7.3716   -1.2307  -21.5976 C   0  0  0  0  0  0  0  0  0  0  0  0
   -7.9966   -0.2637  -21.2207 O   0  0  0  0  0  0  0  0  0  0  0  0
   -6.2513   -1.7223  -20.9560 N   0  0  0  0  0  0  0  0  0  0  0  0
   -5.6570   -1.0150  -19.8913 C   0  0  0  0  0  0  0  0  0  0  0  0
   -5.9484   -1.3639  -18.6000 C   0  0  0  0  0  0  0  0  0  0  0  0
   -5.4654   -0.7255  -17.5097 N   0  0  0  0  0  0  0  0  0  0  0  0
   -4.6450    0.2775  -17.7187 C   0  0  0  0  0  0  0  0  0  0  0  0
   -4.2017    0.6943  -19.0113 C   0  0  0  0  0  0  0  0  0  0  0  0
   -3.2380    1.7232  -19.1985 C   0  0  0  0  0  0  0  0  0  0  0  0
   -2.8405    2.0881  -20.4558 C   0  0  0  0  0  0  0  0  0  0  0  0
   -3.3837    1.4464  -21.5938 C   0  0  0  0  0  0  0  0  0  0  0  0
   -4.3130    0.4458  -21.4405 C   0  0  0  0  0  0  0  0  0  0  0  0
   -4.7292    0.0354  -20.1422 C   0  0  0  0  0  0  0  0  0  0  0  0
   -4.7349   -0.0323  -22.3197 H   0  0  0  0  0  0  0  0  0  0  0  0
   -3.0940    1.7502  -22.5947 H   0  0  0  0  0  0  0  0  0  0  0  0
   -2.0975    2.8710  -20.5966 H   0  0  0  0  0  0  0  0  0  0  0  0
   -2.8301    2.2101  -18.3163 H   0  0  0  0  0  0  0  0  0  0  0  0
   -4.2933    0.8163  -16.8408 H   0  0  0  0  0  0  0  0  0  0  0  0
   -6.6190   -2.2000  -18.4233 H   0  0  0  0  0  0  0  0  0  0  0  0
   -5.5597   -2.7438  -21.7096 C   0  0  0  0  0  0  0  0  0  0  0  0
   -6.7182   -3.3433  -22.5126 C   0  0  2  0  0  0  0  0  0  0  0  0
   -6.2573   -4.1991  -23.6801 C   0  0  0  0  0  0  0  0  0  0  0  0
   -5.5192   -3.6539  -24.2815 H   0  0  0  0  0  0  0  0  0  0  0  0
   -5.7838   -5.1184  -23.3214 H   0  0  0  0  0  0  0  0  0  0  0  0
   -7.0983   -4.4625  -24.3299 H   0  0  0  0  0  0  0  0  0  0  0  0
   -7.2792   -3.9505  -21.7917 H   0  0  0  0  0  0  0  0  0  0  0  0
   -4.7835   -2.3152  -22.3704 H   0  0  0  0  0  0  0  0  0  0  0  0
   -5.0718   -3.4666  -21.0482 H   0  0  0  0  0  0  0  0  0  0  0  0
   -9.1057   -2.3803  -23.0643 C   0  0  0  0  0  0  0  0  0  0  0  0
   -9.7895   -3.5079  -22.5972 C   0  0  0  0  0  0  0  0  0  0  0  0
  -11.1653   -3.6165  -22.7363 C   0  0  0  0  0  0  0  0  0  0  0  0
  -11.9119   -2.6123  -23.3541 C   0  0  0  0  0  0  0  0  0  0  0  0
  -11.2526   -1.4949  -23.8397 C   0  0  0  0  0  0  0  0  0  0  0  0
   -9.8736   -1.3807  -23.6841 C   0  0  0  0  0  0  0  0  0  0  0  0
   -9.2224   -0.1195  -24.1549 C   0  0  0  0  0  0  0  0  0  0  0  0
   -9.8279    0.9492  -24.2594 O   0  0  0  0  0  0  0  0  0  0  0  0
  -11.7836   -0.6555  -24.2772 H   0  0  0  0  0  0  0  0  0  0  0  0
  -12.9923   -2.7178  -23.4270 H   0  0  0  0  0  0  0  0  0  0  0  0
  -11.6818   -4.4841  -22.3436 H   0  0  0  0  0  0  0  0  0  0  0  0
   -9.2443   -4.2893  -22.0764 H   0  0  0  0  0  0  0  0  0  0  0  0
   -7.0886   -2.0672  -24.9780 H   0  0  0  0  0  0  0  0  0  0  0  0
   -6.0737   -1.0255  -23.9514 H   0  0  0  0  0  0  0  0  0  0  0  0
   -6.4492    0.5028  -25.7613 H   0  0  0  0  0  0  0  0  0  0  0  0
   -7.9965    1.3946  -25.7373 H   0  0  0  0  0  0  0  0  0  0  0  0
   -8.4748    2.3205  -23.4050 H   0  0  0  0  0  0  0  0  0  0  0  0
   -6.6359    2.3989  -21.3638 H   0  0  0  0  0  0  0  0  0  0  0  0
   -6.1152    3.7656  -22.3775 H   0  0  0  0  0  0  0  0  0  0  0  0
   -7.7468    3.7828  -21.6610 H   0  0  0  0  0  0  0  0  0  0  0  0
  1  2  1  0
  2  3  1  0
  3  4  2  0
  3  5  1  0
  5  6  1  0
  6  7  1  0
  8  7  1  6
  8  9  1  0
  9 10  2  0
  9 11  1  0
 11 12  1  0
 12 13  2  0
 13 14  1  0
 14 15  2  0
 15 16  1  0
 16 17  2  0
 17 18  1  0
 18 19  2  0
 19 20  1  0
 20 21  2  0
 20 22  1  0
 19 23  1  0
 18 24  1  0
 17 25  1  0
 15 26  1  0
 13 27  1  0
 11 28  1  0
 28 29  1  0
 29 30  1  0
 30 31  1  0
 30 32  1  0
 30 33  1  0
 29 34  1  1
 28 35  1  0
 28 36  1  0
  8 37  1  0
 37 38  2  0
 38 39  1  0
 39 40  2  0
 40 41  1  0
 41 42  2  0
 42 43  1  0
 43 44  2  0
 41 45  1  0
 40 46  1  0
 39 47  1  0
 38 48  1  0
  7 49  1  0
  7 50  1  0
  5 51  1  0
  5 52  1  0
  2 53  1  0
  1 54  1  0
  1 55  1  0
  1 56  1  0
 43  6  1  0
 29  8  1  0
 42 37  1  0
 21 12  1  0
 21 16  1  0
M  END
>  <cnnaffinities>  (36) 
[6.07989]

>  <score>  (36) 
6.07989

>  <index>  (36) 
37

>  <Smiles>  (36) 
C(N(C(=O)C(N1C([C@@]2(C(=O)N(c3c(nc(c4c(c(c(c(c34)[H])[H])[H])[H])[H])[H])C([C@@]2(C([H])([H])[H])[H])([H])[H])c2c(c(c(c(c2C1=O)[H])[H])[H])[H])([H])[H])([H])[H])[H])([H])([H])[H]

>  <h>  (36) 
<NA>

>  <Training>  (36) 
True

>  <Success>  (36) 
True

>  <enamine_searched>  (36) 
False

>  <enamine_id>  (36) 
nan

$$$$

     RDKit          3D

 46 48  0  0  0  0  0  0  0  0999 V2000
   -8.1581   -4.6948  -26.5426 C   0  0  0  0  0  0  0  0  0  0  0  0
   -8.6536   -4.9599  -25.1188 C   0  0  1  0  0  0  0  0  0  0  0  0
   -7.5894   -5.5250  -24.1816 C   0  0  0  0  0  0  0  0  0  0  0  0
   -6.6146   -4.5187  -23.5535 C   0  0  1  0  0  0  0  0  0  0  0  0
   -5.4118   -4.1595  -24.4400 C   0  0  0  0  0  0  0  0  0  0  0  0
   -4.6074   -3.7379  -23.8292 H   0  0  0  0  0  0  0  0  0  0  0  0
   -5.6632   -3.4317  -25.2146 H   0  0  0  0  0  0  0  0  0  0  0  0
   -5.0163   -5.0546  -24.9376 H   0  0  0  0  0  0  0  0  0  0  0  0
   -7.3243   -3.3379  -23.0138 N   0  0  0  0  0  0  0  0  0  0  0  0
   -6.7235   -2.7035  -21.9374 C   0  0  0  0  0  0  0  0  0  0  0  0
   -5.6784   -3.1201  -21.4632 O   0  0  0  0  0  0  0  0  0  0  0  0
   -7.4076   -1.4701  -21.2823 C   0  0  0  0  0  0  0  0  0  0  0  0
   -6.5781   -0.8339  -20.1873 C   0  0  0  0  0  0  0  0  0  0  0  0
   -6.8729   -1.0487  -18.8672 C   0  0  0  0  0  0  0  0  0  0  0  0
   -6.1859   -0.5509  -17.8029 N   0  0  0  0  0  0  0  0  0  0  0  0
   -5.1591    0.2204  -18.0657 C   0  0  0  0  0  0  0  0  0  0  0  0
   -4.7221    0.5309  -19.3807 C   0  0  0  0  0  0  0  0  0  0  0  0
   -3.5937    1.3577  -19.6223 C   0  0  0  0  0  0  0  0  0  0  0  0
   -3.1921    1.6335  -20.9013 C   0  0  0  0  0  0  0  0  0  0  0  0
   -3.9038    1.0910  -21.9939 C   0  0  0  0  0  0  0  0  0  0  0  0
   -4.9999    0.2895  -21.7868 C   0  0  0  0  0  0  0  0  0  0  0  0
   -5.4448   -0.0134  -20.4739 C   0  0  0  0  0  0  0  0  0  0  0  0
   -5.5341   -0.1224  -22.6377 H   0  0  0  0  0  0  0  0  0  0  0  0
   -3.5779    1.3146  -23.0054 H   0  0  0  0  0  0  0  0  0  0  0  0
   -2.3311    2.2712  -21.0885 H   0  0  0  0  0  0  0  0  0  0  0  0
   -3.0575    1.7728  -18.7713 H   0  0  0  0  0  0  0  0  0  0  0  0
   -4.6055    0.6274  -17.2155 H   0  0  0  0  0  0  0  0  0  0  0  0
   -7.7217   -1.6710  -18.5888 H   0  0  0  0  0  0  0  0  0  0  0  0
   -7.6722   -0.7132  -22.0325 H   0  0  0  0  0  0  0  0  0  0  0  0
   -8.3594   -1.8075  -20.8482 H   0  0  0  0  0  0  0  0  0  0  0  0
   -8.4100   -2.7191  -23.7935 C   0  0  1  0  0  0  0  0  0  0  0  0
   -7.9393   -1.6591  -24.8006 C   0  0  0  0  0  0  0  0  0  0  0  0
   -7.4433   -2.0880  -25.6754 H   0  0  0  0  0  0  0  0  0  0  0  0
   -8.7986   -1.0844  -25.1697 H   0  0  0  0  0  0  0  0  0  0  0  0
   -7.2437   -0.9495  -24.3425 H   0  0  0  0  0  0  0  0  0  0  0  0
   -9.3294   -3.7772  -24.4248 C   0  0  0  0  0  0  0  0  0  0  0  0
   -9.9789   -4.1697  -23.6353 H   0  0  0  0  0  0  0  0  0  0  0  0
   -9.9956   -3.2772  -25.1355 H   0  0  0  0  0  0  0  0  0  0  0  0
   -9.0330   -2.1943  -23.0633 H   0  0  0  0  0  0  0  0  0  0  0  0
   -6.1942   -5.0184  -22.6795 H   0  0  0  0  0  0  0  0  0  0  0  0
   -8.0926   -6.0554  -23.3657 H   0  0  0  0  0  0  0  0  0  0  0  0
   -7.0111   -6.2881  -24.7143 H   0  0  0  0  0  0  0  0  0  0  0  0
   -9.4272   -5.7358  -25.2235 H   0  0  0  0  0  0  0  0  0  0  0  0
   -7.9238   -5.6406  -27.0466 H   0  0  0  0  0  0  0  0  0  0  0  0
   -8.9305   -4.1941  -27.1378 H   0  0  0  0  0  0  0  0  0  0  0  0
   -7.2549   -4.0806  -26.5813 H   0  0  0  0  0  0  0  0  0  0  0  0
  1  2  1  0
  2  3  1  0
  3  4  1  0
  4  5  1  0
  5  6  1  0
  5  7  1  0
  5  8  1  0
  4  9  1  0
  9 10  1  0
 10 11  2  0
 10 12  1  0
 12 13  1  0
 13 14  2  0
 14 15  1  0
 15 16  2  0
 16 17  1  0
 17 18  2  0
 18 19  1  0
 19 20  2  0
 20 21  1  0
 21 22  2  0
 21 23  1  0
 20 24  1  0
 19 25  1  0
 18 26  1  0
 16 27  1  0
 14 28  1  0
 12 29  1  0
 12 30  1  0
  9 31  1  0
 31 32  1  0
 32 33  1  0
 32 34  1  0
 32 35  1  0
 31 36  1  0
 36 37  1  0
 36 38  1  0
 31 39  1  1
  4 40  1  1
  3 41  1  0
  3 42  1  0
  2 43  1  6
  1 44  1  0
  1 45  1  0
  1 46  1  0
 36  2  1  0
 22 13  1  0
 22 17  1  0
M  END
>  <cnnaffinities>  (37) 
[5.40964]

>  <score>  (37) 
5.40964

>  <index>  (37) 
38

>  <Smiles>  (37) 
C([C@]1(C([C@@](C([H])([H])[H])(N(C(=O)C(c2c(nc(c3c(c(c(c(c23)[H])[H])[H])[H])[H])[H])([H])[H])[C@@](C([H])([H])[H])(C1([H])[H])[H])[H])([H])[H])[H])([H])([H])[H]

>  <h>  (37) 
<NA>

>  <Training>  (37) 
True

>  <Success>  (37) 
True

>  <enamine_searched>  (37) 
False

>  <enamine_id>  (37) 
nan

$$$$

     RDKit          3D

 40 44  0  0  0  0  0  0  0  0999 V2000
   -7.2401    0.9299  -25.5973 C   0  0  0  0  0  0  0  0  0  0  0  0
   -6.5133   -0.3934  -25.4059 C   0  0  0  0  0  0  0  0  0  0  0  0
   -5.3022   -0.5090  -25.5397 O   0  0  0  0  0  0  0  0  0  0  0  0
   -7.2748   -1.4748  -25.0817 N   0  0  0  0  0  0  0  0  0  0  0  0
   -6.6407   -2.7665  -24.7374 C   0  0  0  0  0  0  0  0  0  0  0  0
   -7.8122   -3.4867  -24.0466 C   0  0  2  0  0  0  0  0  0  0  0  0
   -9.0047   -2.9603  -24.8625 C   0  0  0  0  0  0  0  0  0  0  0  0
   -8.6633   -1.4872  -24.5548 C   0  0  1  0  0  0  0  0  0  0  0  0
   -8.5652   -1.5574  -23.0860 C   0  0  0  0  0  0  0  0  0  0  0  0
   -8.1644   -0.6138  -22.0849 C   0  0  0  0  0  0  0  0  0  0  0  0
   -8.3428    0.5776  -21.9893 O   0  0  0  0  0  1  0  0  0  0  0  0
   -7.3993   -1.3919  -21.1827 N   0  0  0  0  0  0  0  0  0  0  0  0
   -6.5815   -0.8245  -20.1733 C   0  0  0  0  0  0  0  0  0  0  0  0
   -6.8899   -1.0627  -18.8612 C   0  0  0  0  0  0  0  0  0  0  0  0
   -6.1925   -0.5610  -17.8151 N   0  0  0  0  0  0  0  0  0  0  0  0
   -5.1676    0.2093  -18.0827 C   0  0  0  0  0  0  0  0  0  0  0  0
   -4.7291    0.5295  -19.3988 C   0  0  0  0  0  0  0  0  0  0  0  0
   -3.5950    1.3547  -19.6314 C   0  0  0  0  0  0  0  0  0  0  0  0
   -3.1826    1.6231  -20.9073 C   0  0  0  0  0  0  0  0  0  0  0  0
   -3.8809    1.0695  -22.0059 C   0  0  0  0  0  0  0  0  0  0  0  0
   -4.9773    0.2685  -21.8071 C   0  0  0  0  0  0  0  0  0  0  0  0
   -5.4467   -0.0089  -20.4908 C   0  0  0  0  0  0  0  0  0  0  0  0
   -5.4875   -0.1513  -22.6719 H   0  0  0  0  0  0  0  0  0  0  0  0
   -3.5546    1.2853  -23.0197 H   0  0  0  0  0  0  0  0  0  0  0  0
   -2.3241    2.2653  -21.0884 H   0  0  0  0  0  0  0  0  0  0  0  0
   -3.0748    1.7682  -18.7716 H   0  0  0  0  0  0  0  0  0  0  0  0
   -4.6284    0.6164  -17.2272 H   0  0  0  0  0  0  0  0  0  0  0  0
   -7.7432   -1.6849  -18.6066 H   0  0  0  0  0  0  0  0  0  0  0  0
   -7.2533   -2.7114  -21.6311 C   0  0  0  0  0  0  0  0  0  0  0  0
   -6.5350   -3.5590  -21.1583 O   0  0  0  0  0  0  0  0  0  0  0  0
   -8.0630   -2.7901  -22.7613 N   0  0  0  0  0  0  0  0  0  0  0  0
   -9.2842   -0.6917  -24.9760 H   0  0  0  0  0  0  0  0  0  0  0  0
   -9.9668   -3.2774  -24.4630 H   0  0  0  0  0  0  0  0  0  0  0  0
   -8.9257   -3.1964  -25.9278 H   0  0  0  0  0  0  0  0  0  0  0  0
   -7.7019   -4.5545  -23.9064 H   0  0  0  0  0  0  0  0  0  0  0  0
   -5.7909   -2.6288  -24.0597 H   0  0  0  0  0  0  0  0  0  0  0  0
   -6.2970   -3.2675  -25.6445 H   0  0  0  0  0  0  0  0  0  0  0  0
   -6.4886    1.6594  -25.9031 H   0  0  0  0  0  0  0  0  0  0  0  0
   -7.7268    1.2575  -24.6705 H   0  0  0  0  0  0  0  0  0  0  0  0
   -8.0201    0.8656  -26.3659 H   0  0  0  0  0  0  0  0  0  0  0  0
  1  2  1  0
  2  3  2  0
  2  4  1  0
  4  5  1  0
  5  6  1  0
  6  7  1  0
  7  8  1  0
  8  9  1  0
  9 10  2  0
 10 11  1  0
 10 12  1  0
 12 13  1  0
 13 14  2  0
 14 15  1  0
 15 16  2  0
 16 17  1  0
 17 18  2  0
 18 19  1  0
 19 20  2  0
 20 21  1  0
 21 22  2  0
 21 23  1  0
 20 24  1  0
 19 25  1  0
 18 26  1  0
 16 27  1  0
 14 28  1  0
 12 29  1  0
 29 30  2  0
 29 31  1  0
  8 32  1  1
  7 33  1  0
  7 34  1  0
  6 35  1  1
  5 36  1  0
  5 37  1  0
  1 38  1  0
  1 39  1  0
  1 40  1  0
  8  4  1  0
 31  9  1  0
 31  6  1  0
 22 13  1  0
 22 17  1  0
M  CHG  1  11  -1
M  END
>  <cnnaffinities>  (38) 
[5.476]

>  <score>  (38) 
5.476

>  <index>  (38) 
39

>  <Smiles>  (38) 
C(C(=O)N1C([C@@]2(C([C@]1(c1c([O-])n(c3c(nc(c4c(c(c(c(c34)[H])[H])[H])[H])[H])[H])c(=O)n21)[H])([H])[H])[H])([H])[H])([H])([H])[H]

>  <h>  (38) 
<NA>

>  <Training>  (38) 
True

>  <Success>  (38) 
True

>  <enamine_searched>  (38) 
False

>  <enamine_id>  (38) 
nan

$$$$

     RDKit          3D

 40 42  0  0  0  0  0  0  0  0999 V2000
   -9.3063   -6.6313  -25.1051 C   0  0  0  0  0  0  0  0  0  0  0  0
   -9.0073   -5.8186  -23.8472 C   0  0  0  0  0  0  0  0  0  0  0  0
   -7.5641   -5.9926  -23.3922 C   0  0  0  0  0  0  0  0  0  0  0  0
   -7.2625   -5.1703  -22.1490 C   0  0  0  0  0  0  0  0  0  0  0  0
   -7.6215   -3.7626  -22.3155 N   0  0  0  0  0  0  0  0  0  0  0  0
   -6.7881   -2.8013  -21.7718 C   0  0  0  0  0  0  0  0  0  0  0  0
   -5.5889   -2.9861  -21.6716 O   0  0  0  0  0  0  0  0  0  0  0  0
   -7.4215   -1.4834  -21.2569 C   0  0  0  0  0  0  0  0  0  0  0  0
   -6.5821   -0.8250  -20.1835 C   0  0  0  0  0  0  0  0  0  0  0  0
   -6.8739   -1.0433  -18.8641 C   0  0  0  0  0  0  0  0  0  0  0  0
   -6.1836   -0.5507  -17.8032 N   0  0  0  0  0  0  0  0  0  0  0  0
   -5.1570    0.2209  -18.0669 C   0  0  0  0  0  0  0  0  0  0  0  0
   -4.7220    0.5324  -19.3812 C   0  0  0  0  0  0  0  0  0  0  0  0
   -3.5927    1.3584  -19.6194 C   0  0  0  0  0  0  0  0  0  0  0  0
   -3.1889    1.6329  -20.8980 C   0  0  0  0  0  0  0  0  0  0  0  0
   -3.8990    1.0882  -21.9913 C   0  0  0  0  0  0  0  0  0  0  0  0
   -4.9959    0.2876  -21.7863 C   0  0  0  0  0  0  0  0  0  0  0  0
   -5.4448   -0.0103  -20.4742 C   0  0  0  0  0  0  0  0  0  0  0  0
   -5.5188   -0.1395  -22.6357 H   0  0  0  0  0  0  0  0  0  0  0  0
   -3.5702    1.3081  -23.0032 H   0  0  0  0  0  0  0  0  0  0  0  0
   -2.3277    2.2706  -21.0841 H   0  0  0  0  0  0  0  0  0  0  0  0
   -3.0592    1.7738  -18.7671 H   0  0  0  0  0  0  0  0  0  0  0  0
   -4.6063    0.6270  -17.2155 H   0  0  0  0  0  0  0  0  0  0  0  0
   -7.7202   -1.6687  -18.5853 H   0  0  0  0  0  0  0  0  0  0  0  0
   -7.5643   -0.7938  -22.1000 H   0  0  0  0  0  0  0  0  0  0  0  0
   -8.4238   -1.6897  -20.8506 H   0  0  0  0  0  0  0  0  0  0  0  0
   -8.9718   -3.5133  -22.7983 C   0  0  0  0  0  0  0  0  0  0  0  0
   -9.2803   -4.3342  -24.0483 C   0  0  0  0  0  0  0  0  0  0  0  0
  -10.3262   -4.1827  -24.3327 H   0  0  0  0  0  0  0  0  0  0  0  0
   -8.6807   -3.9688  -24.8885 H   0  0  0  0  0  0  0  0  0  0  0  0
   -9.0726   -2.4527  -23.0296 H   0  0  0  0  0  0  0  0  0  0  0  0
   -9.7177   -3.7524  -22.0244 H   0  0  0  0  0  0  0  0  0  0  0  0
   -7.8179   -5.6073  -21.3055 H   0  0  0  0  0  0  0  0  0  0  0  0
   -6.2046   -5.2177  -21.8956 H   0  0  0  0  0  0  0  0  0  0  0  0
   -6.8888   -5.6976  -24.2016 H   0  0  0  0  0  0  0  0  0  0  0  0
   -7.3611   -7.0516  -23.1944 H   0  0  0  0  0  0  0  0  0  0  0  0
   -9.6663   -6.1762  -23.0463 H   0  0  0  0  0  0  0  0  0  0  0  0
   -9.1218   -7.7011  -24.9479 H   0  0  0  0  0  0  0  0  0  0  0  0
  -10.3491   -6.5124  -25.4230 H   0  0  0  0  0  0  0  0  0  0  0  0
   -8.6688   -6.3062  -25.9365 H   0  0  0  0  0  0  0  0  0  0  0  0
  1  2  1  0
  2  3  1  0
  3  4  1  0
  4  5  1  0
  5  6  1  0
  6  7  2  0
  6  8  1  0
  8  9  1  0
  9 10  2  0
 10 11  1  0
 11 12  2  0
 12 13  1  0
 13 14  2  0
 14 15  1  0
 15 16  2  0
 16 17  1  0
 17 18  2  0
 17 19  1  0
 16 20  1  0
 15 21  1  0
 14 22  1  0
 12 23  1  0
 10 24  1  0
  8 25  1  0
  8 26  1  0
  5 27  1  0
 27 28  1  0
 28 29  1  0
 28 30  1  0
 27 31  1  0
 27 32  1  0
  4 33  1  0
  4 34  1  0
  3 35  1  0
  3 36  1  0
  2 37  1  0
  1 38  1  0
  1 39  1  0
  1 40  1  0
 28  2  1  0
 18  9  1  0
 18 13  1  0
M  END
>  <cnnaffinities>  (39) 
[5.08336, 5.08297]

>  <score>  (39) 
5.08336

>  <index>  (39) 
40

>  <Smiles>  (39) 
C(C1(C(C(N(C(=O)C(c2c(nc(c3c(c(c(c(c23)[H])[H])[H])[H])[H])[H])([H])[H])C(C1([H])[H])([H])[H])([H])[H])([H])[H])[H])([H])([H])[H]

>  <h>  (39) 
<NA>

>  <Training>  (39) 
True

>  <Success>  (39) 
True

>  <enamine_searched>  (39) 
False

>  <enamine_id>  (39) 
nan

$$$$

     RDKit          3D

 67 71  0  0  0  0  0  0  0  0999 V2000
   -4.9120   -1.5397  -29.0871 C   0  0  0  0  0  0  0  0  0  0  0  0
   -5.2173   -1.2965  -27.6988 N   0  0  0  0  0  0  0  0  0  0  0  0
   -4.7785   -0.1573  -27.1174 C   0  0  0  0  0  0  0  0  0  0  0  0
   -4.0149    0.6230  -27.6682 O   0  0  0  0  0  0  0  0  0  0  0  0
   -5.2641    0.1642  -25.7054 C   0  0  0  0  0  0  0  0  0  0  0  0
   -6.3894   -0.5983  -25.2076 N   0  0  0  0  0  0  0  0  0  0  0  0
   -6.1801   -1.6313  -24.2063 C   0  0  0  0  0  0  0  0  0  0  0  0
   -7.3599   -1.7946  -23.1954 C   0  0  2  0  0  0  0  0  0  0  0  0
   -7.2253   -0.8261  -21.9940 C   0  0  0  0  0  0  0  0  0  0  0  0
   -7.6906    0.2825  -21.8634 O   0  0  0  0  0  0  0  0  0  0  0  0
   -6.4754   -1.4714  -21.0304 N   0  0  0  0  0  0  0  0  0  0  0  0
   -5.9500   -0.7666  -19.9223 C   0  0  0  0  0  0  0  0  0  0  0  0
   -6.4212   -1.0298  -18.6605 C   0  0  0  0  0  0  0  0  0  0  0  0
   -5.9507   -0.4560  -17.5269 N   0  0  0  0  0  0  0  0  0  0  0  0
   -4.9619    0.3978  -17.6461 C   0  0  0  0  0  0  0  0  0  0  0  0
   -4.3652    0.7521  -18.8916 C   0  0  0  0  0  0  0  0  0  0  0  0
   -3.2506    1.6324  -18.9664 C   0  0  0  0  0  0  0  0  0  0  0  0
   -2.7325    1.9990  -20.1767 C   0  0  0  0  0  0  0  0  0  0  0  0
   -3.3099    1.5122  -21.3702 C   0  0  0  0  0  0  0  0  0  0  0  0
   -4.3710    0.6426  -21.3225 C   0  0  0  0  0  0  0  0  0  0  0  0
   -4.9077    0.2071  -20.0768 C   0  0  0  0  0  0  0  0  0  0  0  0
   -4.8175    0.2986  -22.2483 H   0  0  0  0  0  0  0  0  0  0  0  0
   -2.9131    1.8262  -22.3303 H   0  0  0  0  0  0  0  0  0  0  0  0
   -1.8862    2.6783  -20.2286 H   0  0  0  0  0  0  0  0  0  0  0  0
   -2.8219    2.0089  -18.0436 H   0  0  0  0  0  0  0  0  0  0  0  0
   -4.5886    0.8603  -16.7304 H   0  0  0  0  0  0  0  0  0  0  0  0
   -7.2399   -1.7370  -18.5338 H   0  0  0  0  0  0  0  0  0  0  0  0
   -6.1776   -2.8599  -21.3558 C   0  0  0  0  0  0  0  0  0  0  0  0
   -7.2465   -3.1415  -22.4272 C   0  0  2  0  0  0  0  0  0  0  0  0
   -7.1311   -4.4279  -23.2666 C   0  0  0  0  0  0  0  0  0  0  0  0
   -8.2952   -5.6807  -22.6753 S   0  0  0  0  0  0  0  0  0  0  0  0
   -9.5714   -5.0258  -22.3984 O   0  0  0  0  0  0  0  0  0  0  0  0
   -7.6277   -6.4581  -21.6412 O   0  0  0  0  0  0  0  0  0  0  0  0
   -8.4867   -6.6714  -24.0274 N   0  0  0  0  0  0  0  0  0  0  0  0
   -8.5420   -8.0935  -23.6845 C   0  0  0  0  0  0  0  0  0  0  0  0
   -7.6297   -8.3752  -23.1662 H   0  0  0  0  0  0  0  0  0  0  0  0
   -8.6194   -8.6493  -24.6160 H   0  0  0  0  0  0  0  0  0  0  0  0
   -9.4088   -8.3362  -23.0645 H   0  0  0  0  0  0  0  0  0  0  0  0
   -9.6219   -6.2858  -24.8707 C   0  0  0  0  0  0  0  0  0  0  0  0
   -9.4773   -5.2912  -25.2941 H   0  0  0  0  0  0  0  0  0  0  0  0
  -10.5700   -6.2966  -24.3232 H   0  0  0  0  0  0  0  0  0  0  0  0
   -9.6858   -6.9850  -25.7059 H   0  0  0  0  0  0  0  0  0  0  0  0
   -6.1475   -4.9161  -23.2338 H   0  0  0  0  0  0  0  0  0  0  0  0
   -7.4094   -4.2567  -24.3163 H   0  0  0  0  0  0  0  0  0  0  0  0
   -8.1821   -3.2178  -21.8703 H   0  0  0  0  0  0  0  0  0  0  0  0
   -5.1525   -2.9716  -21.7496 H   0  0  0  0  0  0  0  0  0  0  0  0
   -6.2899   -3.4949  -20.4698 H   0  0  0  0  0  0  0  0  0  0  0  0
   -8.6874   -1.5916  -23.8703 C   0  0  0  0  0  0  0  0  0  0  0  0
   -9.8777   -1.9879  -23.2423 C   0  0  0  0  0  0  0  0  0  0  0  0
  -11.0900   -1.6119  -23.7831 C   0  0  0  0  0  0  0  0  0  0  0  0
  -12.2066   -1.9891  -23.1325 F   0  0  0  0  0  0  0  0  0  0  0  0
  -11.1935   -0.8595  -24.9493 C   0  0  0  0  0  0  0  0  0  0  0  0
  -10.0246   -0.5171  -25.5850 C   0  0  0  0  0  0  0  0  0  0  0  0
   -8.7912   -0.8475  -25.0460 C   0  0  0  0  0  0  0  0  0  0  0  0
   -7.6086   -0.2504  -25.7152 C   0  0  0  0  0  0  0  0  0  0  0  0
   -7.7127    0.5293  -26.6581 O   0  0  0  0  0  0  0  0  0  0  0  0
  -10.0206    0.0474  -26.5033 H   0  0  0  0  0  0  0  0  0  0  0  0
  -12.1400   -0.5390  -25.3607 H   0  0  0  0  0  0  0  0  0  0  0  0
   -9.8911   -2.6081  -22.3517 H   0  0  0  0  0  0  0  0  0  0  0  0
   -5.2686   -1.3720  -23.6561 H   0  0  0  0  0  0  0  0  0  0  0  0
   -5.9882   -2.6028  -24.6884 H   0  0  0  0  0  0  0  0  0  0  0  0
   -5.5238    1.2268  -25.7156 H   0  0  0  0  0  0  0  0  0  0  0  0
   -4.4154    0.0533  -25.0238 H   0  0  0  0  0  0  0  0  0  0  0  0
   -5.8850   -1.8858  -27.2265 H   0  0  0  0  0  0  0  0  0  0  0  0
   -4.2498   -2.3981  -29.2146 H   0  0  0  0  0  0  0  0  0  0  0  0
   -4.4041   -0.6460  -29.4490 H   0  0  0  0  0  0  0  0  0  0  0  0
   -5.8276   -1.7000  -29.6595 H   0  0  0  0  0  0  0  0  0  0  0  0
  1  2  1  0
  2  3  1  0
  3  4  2  0
  3  5  1  0
  5  6  1  0
  6  7  1  0
  8  7  1  6
  8  9  1  0
  9 10  2  0
  9 11  1  0
 11 12  1  0
 12 13  2  0
 13 14  1  0
 14 15  2  0
 15 16  1  0
 16 17  2  0
 17 18  1  0
 18 19  2  0
 19 20  1  0
 20 21  2  0
 20 22  1  0
 19 23  1  0
 18 24  1  0
 17 25  1  0
 15 26  1  0
 13 27  1  0
 11 28  1  0
 28 29  1  0
 29 30  1  0
 30 31  1  0
 31 32  2  0
 31 33  2  0
 31 34  1  0
 34 35  1  0
 35 36  1  0
 35 37  1  0
 35 38  1  0
 34 39  1  0
 39 40  1  0
 39 41  1  0
 39 42  1  0
 30 43  1  0
 30 44  1  0
 29 45  1  1
 28 46  1  0
 28 47  1  0
  8 48  1  0
 48 49  2  0
 49 50  1  0
 50 51  1  0
 50 52  2  0
 52 53  1  0
 53 54  2  0
 54 55  1  0
 55 56  2  0
 53 57  1  0
 52 58  1  0
 49 59  1  0
  7 60  1  0
  7 61  1  0
  5 62  1  0
  5 63  1  0
  2 64  1  0
  1 65  1  0
  1 66  1  0
  1 67  1  0
 55  6  1  0
 29  8  1  0
 54 48  1  0
 21 12  1  0
 21 16  1  0
M  END
>  <cnnaffinities>  (40) 
[6.71361]

>  <score>  (40) 
6.71361

>  <index>  (40) 
41

>  <Smiles>  (40) 
C(N(C(=O)C(N1C([C@@]2(C(=O)N(c3c(nc(c4c(c(c(c(c34)[H])[H])[H])[H])[H])[H])C([C@@]2(C(S(=O)(=O)N(C([H])([H])[H])C([H])([H])[H])([H])[H])[H])([H])[H])c2c(c(F)c(c(c2C1=O)[H])[H])[H])([H])[H])([H])[H])[H])([H])([H])[H]

>  <h>  (40) 
<NA>

>  <Training>  (40) 
True

>  <Success>  (40) 
True

>  <enamine_searched>  (40) 
False

>  <enamine_id>  (40) 
nan

$$$$

     RDKit          3D

 67 72  0  0  0  0  0  0  0  0999 V2000
   -8.2626    0.5249  -29.6000 C   0  0  0  0  0  0  0  0  0  0  0  0
   -8.2764   -0.4970  -28.5699 N   0  0  0  0  0  0  0  0  0  0  0  0
   -7.3868   -0.4444  -27.5308 C   0  0  0  0  0  0  0  0  0  0  0  0
   -6.5865    0.4636  -27.3832 O   0  0  0  0  0  0  0  0  0  0  0  0
   -7.3943   -1.6782  -26.5914 C   0  0  0  0  0  0  0  0  0  0  0  0
   -8.0487   -1.4767  -25.2959 N   0  0  0  0  0  0  0  0  0  0  0  0
   -7.3280   -1.3884  -24.0246 C   0  0  0  0  0  0  0  0  0  0  0  0
   -8.0431   -2.0222  -22.7735 C   0  0  2  0  0  0  0  0  0  0  0  0
   -7.6048   -1.2093  -21.5550 C   0  0  0  0  0  0  0  0  0  0  0  0
   -8.0795   -0.1676  -21.1428 O   0  0  0  0  0  0  0  0  0  0  0  0
   -6.5178   -1.8494  -20.9914 N   0  0  0  0  0  0  0  0  0  0  0  0
   -5.8604   -1.1667  -19.9440 C   0  0  0  0  0  0  0  0  0  0  0  0
   -6.2967   -1.3070  -18.6527 C   0  0  0  0  0  0  0  0  0  0  0  0
   -5.8140   -0.6047  -17.6011 N   0  0  0  0  0  0  0  0  0  0  0  0
   -4.8939    0.2966  -17.8523 C   0  0  0  0  0  0  0  0  0  0  0  0
   -4.3656    0.5562  -19.1463 C   0  0  0  0  0  0  0  0  0  0  0  0
   -3.3753    1.5510  -19.3582 C   0  0  0  0  0  0  0  0  0  0  0  0
   -2.9311    1.8207  -20.6238 C   0  0  0  0  0  0  0  0  0  0  0  0
   -3.4513    1.1086  -21.7317 C   0  0  0  0  0  0  0  0  0  0  0  0
   -4.3957    0.1294  -21.5497 C   0  0  0  0  0  0  0  0  0  0  0  0
   -4.8728   -0.1790  -20.2409 C   0  0  0  0  0  0  0  0  0  0  0  0
   -4.7915   -0.4072  -22.4107 H   0  0  0  0  0  0  0  0  0  0  0  0
   -3.1025    1.3430  -22.7355 H   0  0  0  0  0  0  0  0  0  0  0  0
   -2.1853    2.5934  -20.7917 H   0  0  0  0  0  0  0  0  0  0  0  0
   -2.9977    2.0967  -18.4957 H   0  0  0  0  0  0  0  0  0  0  0  0
   -4.5345    0.8857  -17.0093 H   0  0  0  0  0  0  0  0  0  0  0  0
   -7.0994   -2.0072  -18.4304 H   0  0  0  0  0  0  0  0  0  0  0  0
   -6.1633   -3.1093  -21.6482 C   0  0  0  0  0  0  0  0  0  0  0  0
   -7.4999   -3.4235  -22.3395 C   0  0  2  0  0  0  0  0  0  0  0  0
   -7.5830   -4.5037  -23.4219 C   0  0  0  0  0  0  0  0  0  0  0  0
   -6.4090   -4.6035  -24.2494 N   0  0  0  0  0  0  0  0  0  0  0  0
   -5.2768   -5.2589  -23.8694 C   0  0  0  0  0  0  0  0  0  0  0  0
   -5.2974   -6.4715  -22.6161 S   0  0  0  0  0  0  0  0  0  0  0  0
   -3.5899   -6.6508  -22.8442 C   0  0  0  0  0  0  0  0  0  0  0  0
   -3.0592   -5.8840  -23.7371 N   0  0  0  0  0  0  0  0  0  0  0  0
   -4.0049   -5.0864  -24.3407 C   0  0  0  0  0  0  0  0  0  0  0  0
   -3.6169   -4.0973  -25.3960 C   0  0  0  0  0  0  0  0  0  0  0  0
   -3.8839   -3.0753  -25.0980 H   0  0  0  0  0  0  0  0  0  0  0  0
   -4.1206   -4.2967  -26.3499 H   0  0  0  0  0  0  0  0  0  0  0  0
   -2.5396   -4.1237  -25.5704 H   0  0  0  0  0  0  0  0  0  0  0  0
   -3.0389   -7.3722  -22.2557 H   0  0  0  0  0  0  0  0  0  0  0  0
   -6.4045   -4.0951  -25.1193 H   0  0  0  0  0  0  0  0  0  0  0  0
   -8.4368   -4.2695  -24.0667 H   0  0  0  0  0  0  0  0  0  0  0  0
   -7.7825   -5.4813  -22.9666 H   0  0  0  0  0  0  0  0  0  0  0  0
   -8.1616   -3.7541  -21.5297 H   0  0  0  0  0  0  0  0  0  0  0  0
   -5.8373   -3.8741  -20.9317 H   0  0  0  0  0  0  0  0  0  0  0  0
   -5.3574   -2.9645  -22.3846 H   0  0  0  0  0  0  0  0  0  0  0  0
   -9.5336   -2.0115  -22.9082 C   0  0  0  0  0  0  0  0  0  0  0  0
  -10.3528   -2.4355  -21.8444 C   0  0  0  0  0  0  0  0  0  0  0  0
  -11.7311   -2.4387  -22.0150 C   0  0  0  0  0  0  0  0  0  0  0  0
  -12.8379   -3.0982  -20.8408 Cl  0  0  0  0  0  0  0  0  0  0  0  0
  -12.3270   -1.9291  -23.1626 C   0  0  0  0  0  0  0  0  0  0  0  0
  -11.5059   -1.4795  -24.1790 C   0  0  0  0  0  0  0  0  0  0  0  0
  -10.1339   -1.5888  -24.0883 C   0  0  0  0  0  0  0  0  0  0  0  0
   -9.3951   -1.3203  -25.3501 C   0  0  0  0  0  0  0  0  0  0  0  0
   -9.9861   -1.0604  -26.4011 O   0  0  0  0  0  0  0  0  0  0  0  0
  -11.8479   -1.0215  -25.0998 H   0  0  0  0  0  0  0  0  0  0  0  0
  -13.4179   -1.9199  -23.2065 H   0  0  0  0  0  0  0  0  0  0  0  0
   -9.8958   -2.7589  -20.9115 H   0  0  0  0  0  0  0  0  0  0  0  0
   -6.3582   -1.8789  -24.1542 H   0  0  0  0  0  0  0  0  0  0  0  0
   -7.1480   -0.3349  -23.7640 H   0  0  0  0  0  0  0  0  0  0  0  0
   -7.9223   -2.4920  -27.1053 H   0  0  0  0  0  0  0  0  0  0  0  0
   -6.3494   -1.9604  -26.4149 H   0  0  0  0  0  0  0  0  0  0  0  0
   -9.1208   -1.0435  -28.4490 H   0  0  0  0  0  0  0  0  0  0  0  0
   -8.9520    0.2364  -30.3984 H   0  0  0  0  0  0  0  0  0  0  0  0
   -7.2581    0.6099  -30.0225 H   0  0  0  0  0  0  0  0  0  0  0  0
   -8.5497    1.5143  -29.2248 H   0  0  0  0  0  0  0  0  0  0  0  0
  1  2  1  0
  2  3  1  0
  3  4  2  0
  3  5  1  0
  5  6  1  0
  6  7  1  0
  8  7  1  6
  8  9  1  0
  9 10  2  0
  9 11  1  0
 11 12  1  0
 12 13  2  0
 13 14  1  0
 14 15  2  0
 15 16  1  0
 16 17  2  0
 17 18  1  0
 18 19  2  0
 19 20  1  0
 20 21  2  0
 20 22  1  0
 19 23  1  0
 18 24  1  0
 17 25  1  0
 15 26  1  0
 13 27  1  0
 11 28  1  0
 28 29  1  0
 29 30  1  0
 30 31  1  0
 31 32  1  0
 32 33  1  0
 33 34  1  0
 34 35  2  0
 35 36  1  0
 36 37  1  0
 37 38  1  0
 37 39  1  0
 37 40  1  0
 34 41  1  0
 31 42  1  0
 30 43  1  0
 30 44  1  0
 29 45  1  1
 28 46  1  0
 28 47  1  0
  8 48  1  0
 48 49  2  0
 49 50  1  0
 50 51  1  0
 50 52  2  0
 52 53  1  0
 53 54  2  0
 54 55  1  0
 55 56  2  0
 53 57  1  0
 52 58  1  0
 49 59  1  0
  7 60  1  0
  7 61  1  0
  5 62  1  0
  5 63  1  0
  2 64  1  0
  1 65  1  0
  1 66  1  0
  1 67  1  0
 55  6  1  0
 29  8  1  0
 36 32  2  0
 54 48  1  0
 21 12  1  0
 21 16  1  0
M  END
>  <cnnaffinities>  (41) 
[6.77186, 7.03611]

>  <score>  (41) 
6.77186

>  <index>  (41) 
43

>  <Smiles>  (41) 
C(N(C(=O)C(N1C([C@@]2(C(=O)N(c3c(nc(c4c(c(c(c(c34)[H])[H])[H])[H])[H])[H])C([C@@]2(C(N(c2sc(nc2C([H])([H])[H])[H])[H])([H])[H])[H])([H])[H])c2c(c(Cl)c(c(c2C1=O)[H])[H])[H])([H])[H])([H])[H])[H])([H])([H])[H]

>  <h>  (41) 
<NA>

>  <Training>  (41) 
True

>  <Success>  (41) 
True

>  <enamine_searched>  (41) 
False

>  <enamine_id>  (41) 
nan

$$$$

     RDKit          3D

 60 64  0  0  0  0  0  0  0  0999 V2000
   -5.1890   -3.9269  -19.1763 C   0  0  0  0  0  0  0  0  0  0  0  0
   -6.2092   -4.5873  -19.9471 N   0  0  0  0  0  0  0  0  0  0  0  0
   -6.1066   -5.8542  -20.3933 C   0  0  0  0  0  0  0  0  0  0  0  0
   -5.1551   -6.5687  -20.1160 O   0  0  0  0  0  0  0  0  0  0  0  0
   -7.3256   -6.3415  -21.2112 C   0  0  0  0  0  0  0  0  0  0  0  0
   -7.6490   -5.4676  -22.3264 N   0  0  0  0  0  0  0  0  0  0  0  0
   -8.5535   -4.3145  -22.2967 C   0  0  0  0  0  0  0  0  0  0  0  0
   -7.9025   -3.0485  -22.9390 C   0  0  2  0  0  0  0  0  0  0  0  0
   -6.7872   -2.4486  -22.0490 C   0  0  0  0  0  0  0  0  0  0  0  0
   -5.6155   -2.7752  -22.0163 O   0  0  0  0  0  0  0  0  0  0  0  0
   -7.3236   -1.4552  -21.2617 N   0  0  0  0  0  0  0  0  0  0  0  0
   -6.5871   -0.8380  -20.2246 C   0  0  0  0  0  0  0  0  0  0  0  0
   -6.9714   -1.0090  -18.9177 C   0  0  0  0  0  0  0  0  0  0  0  0
   -6.2802   -0.5398  -17.8529 N   0  0  0  0  0  0  0  0  0  0  0  0
   -5.2126    0.1859  -18.0961 C   0  0  0  0  0  0  0  0  0  0  0  0
   -4.7399    0.4868  -19.4029 C   0  0  0  0  0  0  0  0  0  0  0  0
   -3.6103    1.3213  -19.6150 C   0  0  0  0  0  0  0  0  0  0  0  0
   -3.1973    1.6241  -20.8823 C   0  0  0  0  0  0  0  0  0  0  0  0
   -3.8903    1.1056  -21.9990 C   0  0  0  0  0  0  0  0  0  0  0  0
   -4.9831    0.2973  -21.8212 C   0  0  0  0  0  0  0  0  0  0  0  0
   -5.4380   -0.0361  -20.5139 C   0  0  0  0  0  0  0  0  0  0  0  0
   -5.5081   -0.0974  -22.6851 H   0  0  0  0  0  0  0  0  0  0  0  0
   -3.5590    1.3546  -23.0031 H   0  0  0  0  0  0  0  0  0  0  0  0
   -2.3455    2.2788  -21.0436 H   0  0  0  0  0  0  0  0  0  0  0  0
   -3.1037    1.7326  -18.7449 H   0  0  0  0  0  0  0  0  0  0  0  0
   -4.6643    0.5696  -17.2359 H   0  0  0  0  0  0  0  0  0  0  0  0
   -7.8380   -1.6202  -18.6664 H   0  0  0  0  0  0  0  0  0  0  0  0
   -8.6988   -1.1250  -21.5926 C   0  0  0  0  0  0  0  0  0  0  0  0
   -8.8616   -1.8095  -22.9576 C   0  0  2  0  0  0  0  0  0  0  0  0
  -10.3116   -2.0054  -23.3577 C   0  0  0  0  0  0  0  0  0  0  0  0
  -11.0297   -2.5690  -22.2823 O   0  0  0  0  0  0  0  0  0  0  0  0
  -12.3663   -2.8534  -22.6047 C   0  0  0  0  0  0  0  0  0  0  0  0
  -12.4354   -3.5886  -23.4215 H   0  0  0  0  0  0  0  0  0  0  0  0
  -12.8340   -3.2700  -21.7088 H   0  0  0  0  0  0  0  0  0  0  0  0
  -12.9152   -1.9471  -22.9036 H   0  0  0  0  0  0  0  0  0  0  0  0
  -10.7519   -1.0303  -23.6294 H   0  0  0  0  0  0  0  0  0  0  0  0
  -10.3754   -2.6568  -24.2446 H   0  0  0  0  0  0  0  0  0  0  0  0
   -8.4269   -1.1240  -23.6894 H   0  0  0  0  0  0  0  0  0  0  0  0
   -9.4188   -1.5060  -20.8612 H   0  0  0  0  0  0  0  0  0  0  0  0
   -8.8327   -0.0383  -21.6639 H   0  0  0  0  0  0  0  0  0  0  0  0
   -7.3136   -3.4618  -24.2813 C   0  0  0  0  0  0  0  0  0  0  0  0
   -6.9600   -2.5139  -25.2541 C   0  0  0  0  0  0  0  0  0  0  0  0
   -6.3301   -2.9053  -26.4255 C   0  0  0  0  0  0  0  0  0  0  0  0
   -5.8896   -1.6903  -27.5962 Cl  0  0  0  0  0  0  0  0  0  0  0  0
   -6.0223   -4.2401  -26.6862 C   0  0  0  0  0  0  0  0  0  0  0  0
   -6.3442   -5.1764  -25.7287 C   0  0  0  0  0  0  0  0  0  0  0  0
   -6.9621   -4.7946  -24.5419 C   0  0  0  0  0  0  0  0  0  0  0  0
   -7.0916   -5.8630  -23.5135 C   0  0  0  0  0  0  0  0  0  0  0  0
   -6.6557   -6.9918  -23.6882 O   0  0  0  0  0  0  0  0  0  0  0  0
   -6.1035   -6.2263  -25.8556 H   0  0  0  0  0  0  0  0  0  0  0  0
   -5.5251   -4.5275  -27.6062 H   0  0  0  0  0  0  0  0  0  0  0  0
   -7.1480   -1.4569  -25.1101 H   0  0  0  0  0  0  0  0  0  0  0  0
   -8.8985   -4.1070  -21.2811 H   0  0  0  0  0  0  0  0  0  0  0  0
   -9.4466   -4.5494  -22.8924 H   0  0  0  0  0  0  0  0  0  0  0  0
   -7.0524   -7.3128  -21.6243 H   0  0  0  0  0  0  0  0  0  0  0  0
   -8.2203   -6.5064  -20.6077 H   0  0  0  0  0  0  0  0  0  0  0  0
   -6.9869   -4.0391  -20.2788 H   0  0  0  0  0  0  0  0  0  0  0  0
   -4.2976   -3.7759  -19.7867 H   0  0  0  0  0  0  0  0  0  0  0  0
   -5.5534   -2.9610  -18.8276 H   0  0  0  0  0  0  0  0  0  0  0  0
   -4.9607   -4.4887  -18.2762 H   0  0  0  0  0  0  0  0  0  0  0  0
  1  2  1  0
  2  3  1  0
  3  4  2  0
  3  5  1  0
  5  6  1  0
  6  7  1  0
  8  7  1  1
  8  9  1  0
  9 10  2  0
  9 11  1  0
 11 12  1  0
 12 13  2  0
 13 14  1  0
 14 15  2  0
 15 16  1  0
 16 17  2  0
 17 18  1  0
 18 19  2  0
 19 20  1  0
 20 21  2  0
 20 22  1  0
 19 23  1  0
 18 24  1  0
 17 25  1  0
 15 26  1  0
 13 27  1  0
 11 28  1  0
 28 29  1  0
 29 30  1  0
 30 31  1  0
 31 32  1  0
 32 33  1  0
 32 34  1  0
 32 35  1  0
 30 36  1  0
 30 37  1  0
 29 38  1  6
 28 39  1  0
 28 40  1  0
  8 41  1  0
 41 42  2  0
 42 43  1  0
 43 44  1  0
 43 45  2  0
 45 46  1  0
 46 47  2  0
 47 48  1  0
 48 49  2  0
 46 50  1  0
 45 51  1  0
 42 52  1  0
  7 53  1  0
  7 54  1  0
  5 55  1  0
  5 56  1  0
  2 57  1  0
  1 58  1  0
  1 59  1  0
  1 60  1  0
 48  6  1  0
 29  8  1  0
 47 41  1  0
 21 12  1  0
 21 16  1  0
M  END
>  <cnnaffinities>  (42) 
[6.47843]

>  <score>  (42) 
6.47843

>  <index>  (42) 
44

>  <Smiles>  (42) 
C(N(C(=O)C(N1C([C@@]2(C(=O)N(c3c(nc(c4c(c(c(c(c34)[H])[H])[H])[H])[H])[H])C([C@@]2(C(OC([H])([H])[H])([H])[H])[H])([H])[H])c2c(c(Cl)c(c(c2C1=O)[H])[H])[H])([H])[H])([H])[H])[H])([H])([H])[H]

>  <h>  (42) 
<NA>

>  <Training>  (42) 
True

>  <Success>  (42) 
True

>  <enamine_searched>  (42) 
False

>  <enamine_id>  (42) 
nan

$$$$

     RDKit          3D

 66 71  0  0  0  0  0  0  0  0999 V2000
   -5.8640   -0.2216  -29.5069 C   0  0  0  0  0  0  0  0  0  0  0  0
   -5.6643    0.1023  -28.1116 N   0  0  0  0  0  0  0  0  0  0  0  0
   -5.0929   -0.8226  -27.2923 C   0  0  0  0  0  0  0  0  0  0  0  0
   -4.5406   -1.8311  -27.7005 O   0  0  0  0  0  0  0  0  0  0  0  0
   -5.1411   -0.4468  -25.7969 C   0  0  0  0  0  0  0  0  0  0  0  0
   -6.3494   -0.8726  -25.0965 N   0  0  0  0  0  0  0  0  0  0  0  0
   -6.2411   -1.9809  -24.1395 C   0  0  0  0  0  0  0  0  0  0  0  0
   -7.4125   -2.0630  -23.1122 C   0  0  2  0  0  0  0  0  0  0  0  0
   -7.1352   -1.0860  -21.9399 C   0  0  0  0  0  0  0  0  0  0  0  0
   -7.5165    0.0537  -21.8050 O   0  0  0  0  0  0  0  0  0  0  0  0
   -6.3658   -1.7731  -21.0215 N   0  0  0  0  0  0  0  0  0  0  0  0
   -5.8231   -1.1138  -19.9053 C   0  0  0  0  0  0  0  0  0  0  0  0
   -6.2441   -1.4046  -18.6310 C   0  0  0  0  0  0  0  0  0  0  0  0
   -5.8173   -0.7564  -17.5205 N   0  0  0  0  0  0  0  0  0  0  0  0
   -4.9313    0.1973  -17.6842 C   0  0  0  0  0  0  0  0  0  0  0  0
   -4.3706    0.5521  -18.9411 C   0  0  0  0  0  0  0  0  0  0  0  0
   -3.3872    1.5679  -19.0476 C   0  0  0  0  0  0  0  0  0  0  0  0
   -2.8452    1.8805  -20.2633 C   0  0  0  0  0  0  0  0  0  0  0  0
   -3.2921    1.2194  -21.4324 C   0  0  0  0  0  0  0  0  0  0  0  0
   -4.2689    0.2607  -21.3588 C   0  0  0  0  0  0  0  0  0  0  0  0
   -4.8278   -0.1071  -20.0995 C   0  0  0  0  0  0  0  0  0  0  0  0
   -4.6409   -0.1956  -22.2716 H   0  0  0  0  0  0  0  0  0  0  0  0
   -2.8693    1.4835  -22.3978 H   0  0  0  0  0  0  0  0  0  0  0  0
   -2.0904    2.6576  -20.3424 H   0  0  0  0  0  0  0  0  0  0  0  0
   -3.1022    2.0928  -18.1391 H   0  0  0  0  0  0  0  0  0  0  0  0
   -4.6004    0.7406  -16.7978 H   0  0  0  0  0  0  0  0  0  0  0  0
   -6.9983   -2.1764  -18.4685 H   0  0  0  0  0  0  0  0  0  0  0  0
   -6.2692   -3.1970  -21.2966 C   0  0  0  0  0  0  0  0  0  0  0  0
   -7.4097   -3.3837  -22.2929 C   0  0  2  0  0  0  0  0  0  0  0  0
   -7.5494   -4.7384  -23.0009 C   0  0  0  0  0  0  0  0  0  0  0  0
   -6.3432   -5.3128  -23.7081 C   0  0  0  0  0  0  0  0  0  0  0  0
   -6.2750   -5.3220  -25.1039 C   0  0  0  0  0  0  0  0  0  0  0  0
   -5.1987   -5.9067  -25.7703 C   0  0  0  0  0  0  0  0  0  0  0  0
   -4.1537   -6.4676  -25.0407 C   0  0  0  0  0  0  0  0  0  0  0  0
   -4.2029   -6.4508  -23.6484 C   0  0  0  0  0  0  0  0  0  0  0  0
   -5.2908   -5.8856  -22.9881 C   0  0  0  0  0  0  0  0  0  0  0  0
   -5.3339   -5.8930  -21.8980 H   0  0  0  0  0  0  0  0  0  0  0  0
   -3.3944   -6.8802  -23.0643 H   0  0  0  0  0  0  0  0  0  0  0  0
   -3.3146   -6.9297  -25.5590 H   0  0  0  0  0  0  0  0  0  0  0  0
   -5.1689   -5.9207  -26.8577 H   0  0  0  0  0  0  0  0  0  0  0  0
   -7.0668   -4.8318  -25.6731 H   0  0  0  0  0  0  0  0  0  0  0  0
   -7.8756   -5.4495  -22.2296 H   0  0  0  0  0  0  0  0  0  0  0  0
   -8.3823   -4.6545  -23.7104 H   0  0  0  0  0  0  0  0  0  0  0  0
   -8.2997   -3.3007  -21.6643 H   0  0  0  0  0  0  0  0  0  0  0  0
   -6.4131   -3.7756  -20.3817 H   0  0  0  0  0  0  0  0  0  0  0  0
   -5.2902   -3.4520  -21.7190 H   0  0  0  0  0  0  0  0  0  0  0  0
   -8.7214   -1.7162  -23.7628 C   0  0  0  0  0  0  0  0  0  0  0  0
   -9.9398   -2.0627  -23.1633 C   0  0  0  0  0  0  0  0  0  0  0  0
  -11.1348   -1.6145  -23.6993 C   0  0  0  0  0  0  0  0  0  0  0  0
  -12.6258   -2.0296  -22.8938 Cl  0  0  0  0  0  0  0  0  0  0  0  0
  -11.1602   -0.8298  -24.8552 C   0  0  0  0  0  0  0  0  0  0  0  0
   -9.9687   -0.4968  -25.4489 C   0  0  0  0  0  0  0  0  0  0  0  0
   -8.7584   -0.8890  -24.8862 C   0  0  0  0  0  0  0  0  0  0  0  0
   -7.5241   -0.3127  -25.4778 C   0  0  0  0  0  0  0  0  0  0  0  0
   -7.5901    0.6260  -26.2749 O   0  0  0  0  0  0  0  0  0  0  0  0
   -9.9503    0.1057  -26.3480 H   0  0  0  0  0  0  0  0  0  0  0  0
  -12.0793   -0.4285  -25.2697 H   0  0  0  0  0  0  0  0  0  0  0  0
   -9.9725   -2.6671  -22.2647 H   0  0  0  0  0  0  0  0  0  0  0  0
   -6.1528   -2.9131  -24.7012 H   0  0  0  0  0  0  0  0  0  0  0  0
   -5.3018   -1.8695  -23.5847 H   0  0  0  0  0  0  0  0  0  0  0  0
   -4.2923   -0.9353  -25.3177 H   0  0  0  0  0  0  0  0  0  0  0  0
   -5.0415    0.6422  -25.7026 H   0  0  0  0  0  0  0  0  0  0  0  0
   -6.3779    0.6698  -27.6663 H   0  0  0  0  0  0  0  0  0  0  0  0
   -4.9130   -0.5382  -29.9435 H   0  0  0  0  0  0  0  0  0  0  0  0
   -6.2185    0.6733  -30.0298 H   0  0  0  0  0  0  0  0  0  0  0  0
   -6.5926   -1.0344  -29.6341 H   0  0  0  0  0  0  0  0  0  0  0  0
  1  2  1  0
  2  3  1  0
  3  4  2  0
  3  5  1  0
  5  6  1  0
  6  7  1  0
  8  7  1  6
  8  9  1  0
  9 10  2  0
  9 11  1  0
 11 12  1  0
 12 13  2  0
 13 14  1  0
 14 15  2  0
 15 16  1  0
 16 17  2  0
 17 18  1  0
 18 19  2  0
 19 20  1  0
 20 21  2  0
 20 22  1  0
 19 23  1  0
 18 24  1  0
 17 25  1  0
 15 26  1  0
 13 27  1  0
 11 28  1  0
 28 29  1  0
 29 30  1  0
 30 31  1  0
 31 32  2  0
 32 33  1  0
 33 34  2  0
 34 35  1  0
 35 36  2  0
 36 37  1  0
 35 38  1  0
 34 39  1  0
 33 40  1  0
 32 41  1  0
 30 42  1  0
 30 43  1  0
 29 44  1  1
 28 45  1  0
 28 46  1  0
  8 47  1  0
 47 48  2  0
 48 49  1  0
 49 50  1  0
 49 51  2  0
 51 52  1  0
 52 53  2  0
 53 54  1  0
 54 55  2  0
 52 56  1  0
 51 57  1  0
 48 58  1  0
  7 59  1  0
  7 60  1  0
  5 61  1  0
  5 62  1  0
  2 63  1  0
  1 64  1  0
  1 65  1  0
  1 66  1  0
 54  6  1  0
 29  8  1  0
 36 31  1  0
 53 47  1  0
 21 12  1  0
 21 16  1  0
M  END
>  <cnnaffinities>  (43) 
[6.66013]

>  <score>  (43) 
6.66013

>  <index>  (43) 
45

>  <Smiles>  (43) 
C(N(C(=O)C(N1C([C@@]2(C(=O)N(c3c(nc(c4c(c(c(c(c34)[H])[H])[H])[H])[H])[H])C([C@@]2(C(c2c(c(c(c(c2[H])[H])[H])[H])[H])([H])[H])[H])([H])[H])c2c(c(Cl)c(c(c2C1=O)[H])[H])[H])([H])[H])([H])[H])[H])([H])([H])[H]

>  <h>  (43) 
<NA>

>  <Training>  (43) 
True

>  <Success>  (43) 
True

>  <enamine_searched>  (43) 
False

>  <enamine_id>  (43) 
nan

$$$$

     RDKit          3D

 50 54  0  0  0  0  0  0  0  0999 V2000
  -10.2472   -2.9685  -22.0736 C   0  0  0  0  0  0  0  0  0  0  0  0
   -9.1662   -2.0198  -22.6376 C   0  0  1  0  0  0  0  0  0  0  0  0
   -8.6921   -1.0458  -21.5358 C   0  0  0  0  0  0  0  0  0  0  0  0
   -7.3451   -1.4666  -21.2140 N   0  0  0  0  0  0  0  0  0  0  0  0
   -6.5646   -0.8610  -20.1897 C   0  0  0  0  0  0  0  0  0  0  0  0
   -6.8902   -1.0571  -18.8724 C   0  0  0  0  0  0  0  0  0  0  0  0
   -6.2038   -0.5461  -17.8225 N   0  0  0  0  0  0  0  0  0  0  0  0
   -5.1669    0.2120  -18.0828 C   0  0  0  0  0  0  0  0  0  0  0  0
   -4.7312    0.5304  -19.3983 C   0  0  0  0  0  0  0  0  0  0  0  0
   -3.6051    1.3646  -19.6327 C   0  0  0  0  0  0  0  0  0  0  0  0
   -3.2219    1.6653  -20.9098 C   0  0  0  0  0  0  0  0  0  0  0  0
   -3.9529    1.1535  -22.0071 C   0  0  0  0  0  0  0  0  0  0  0  0
   -5.0446    0.3484  -21.8091 C   0  0  0  0  0  0  0  0  0  0  0  0
   -5.4506   -0.0080  -20.4927 C   0  0  0  0  0  0  0  0  0  0  0  0
   -5.5984   -0.0422  -22.6630 H   0  0  0  0  0  0  0  0  0  0  0  0
   -3.6423    1.4000  -23.0193 H   0  0  0  0  0  0  0  0  0  0  0  0
   -2.3646    2.3117  -21.0944 H   0  0  0  0  0  0  0  0  0  0  0  0
   -3.0681    1.7681  -18.7769 H   0  0  0  0  0  0  0  0  0  0  0  0
   -4.6224    0.6147  -17.2276 H   0  0  0  0  0  0  0  0  0  0  0  0
   -7.7451   -1.6776  -18.6030 H   0  0  0  0  0  0  0  0  0  0  0  0
   -6.8243   -2.3978  -22.0826 C   0  0  0  0  0  0  0  0  0  0  0  0
   -5.7070   -2.8639  -21.9867 O   0  0  0  0  0  0  0  0  0  0  0  0
   -7.8673   -2.6974  -23.1810 C   0  0  1  0  0  0  0  0  0  0  0  0
   -8.0161   -4.2182  -23.3863 C   0  0  0  0  0  0  0  0  0  0  0  0
   -6.8334   -4.8044  -23.9833 N   0  0  0  0  0  0  0  0  0  0  0  0
   -6.2997   -6.0679  -23.4995 C   0  0  0  0  0  0  0  0  0  0  0  0
   -4.9749   -5.9215  -22.8636 C   0  0  0  0  0  0  0  0  0  0  0  0
   -3.9420   -5.8114  -22.3579 N   0  0  0  0  0  0  0  0  0  0  0  0
   -6.9899   -6.4905  -22.7639 H   0  0  0  0  0  0  0  0  0  0  0  0
   -6.2174   -6.7900  -24.3182 H   0  0  0  0  0  0  0  0  0  0  0  0
   -6.2667   -4.2691  -25.1094 C   0  0  0  0  0  0  0  0  0  0  0  0
   -5.4905   -4.9180  -25.7926 O   0  0  0  0  0  0  0  0  0  0  0  0
   -6.6305   -2.8390  -25.3944 C   0  0  0  0  0  0  0  0  0  0  0  0
   -6.1388   -2.2604  -26.5642 C   0  0  0  0  0  0  0  0  0  0  0  0
   -6.3509   -0.9277  -26.8475 C   0  0  0  0  0  0  0  0  0  0  0  0
   -7.0518   -0.1790  -25.9126 C   0  0  0  0  0  0  0  0  0  0  0  0
   -7.2463    1.1276  -26.1631 F   0  0  0  0  0  0  0  0  0  0  0  0
   -7.5551   -0.7179  -24.7443 C   0  0  0  0  0  0  0  0  0  0  0  0
   -7.3818   -2.0843  -24.4856 C   0  0  0  0  0  0  0  0  0  0  0  0
   -8.0673   -0.0467  -24.0602 H   0  0  0  0  0  0  0  0  0  0  0  0
   -5.9829   -0.4429  -27.7471 H   0  0  0  0  0  0  0  0  0  0  0  0
   -5.5683   -2.8757  -27.2451 H   0  0  0  0  0  0  0  0  0  0  0  0
   -8.9021   -4.4146  -24.0111 H   0  0  0  0  0  0  0  0  0  0  0  0
   -8.1577   -4.6971  -22.4211 H   0  0  0  0  0  0  0  0  0  0  0  0
   -8.7330    0.0102  -21.8474 H   0  0  0  0  0  0  0  0  0  0  0  0
   -9.3302   -1.1373  -20.6621 H   0  0  0  0  0  0  0  0  0  0  0  0
   -9.6575   -1.4612  -23.4442 H   0  0  0  0  0  0  0  0  0  0  0  0
  -11.1050   -2.3950  -21.6901 H   0  0  0  0  0  0  0  0  0  0  0  0
   -9.8703   -3.5822  -21.2444 H   0  0  0  0  0  0  0  0  0  0  0  0
  -10.6367   -3.6488  -22.8393 H   0  0  0  0  0  0  0  0  0  0  0  0
  1  2  1  0
  2  3  1  0
  3  4  1  0
  4  5  1  0
  5  6  2  0
  6  7  1  0
  7  8  2  0
  8  9  1  0
  9 10  2  0
 10 11  1  0
 11 12  2  0
 12 13  1  0
 13 14  2  0
 13 15  1  0
 12 16  1  0
 11 17  1  0
 10 18  1  0
  8 19  1  0
  6 20  1  0
  4 21  1  0
 21 22  2  0
 21 23  1  0
 23 24  1  6
 24 25  1  0
 25 26  1  0
 26 27  1  0
 27 28  3  0
 26 29  1  0
 26 30  1  0
 25 31  1  0
 31 32  2  0
 31 33  1  0
 33 34  2  0
 34 35  1  0
 35 36  2  0
 36 37  1  0
 36 38  1  0
 38 39  2  0
 38 40  1  0
 35 41  1  0
 34 42  1  0
 24 43  1  0
 24 44  1  0
  3 45  1  0
  3 46  1  0
  2 47  1  6
  1 48  1  0
  1 49  1  0
  1 50  1  0
 23  2  1  0
 39 33  1  0
 14  5  1  0
 39 23  1  0
 14  9  1  0
M  END
>  <cnnaffinities>  (44) 
[6.0317, 6.20242, 5.90548]

>  <score>  (44) 
6.0317

>  <index>  (44) 
46

>  <Smiles>  (44) 
C([C@]1(C(N(c2c(nc(c3c(c(c(c(c23)[H])[H])[H])[H])[H])[H])C(=O)[C@]21C(N(C(C#N)([H])[H])C(=O)c1c(c(c(F)c(c21)[H])[H])[H])([H])[H])([H])[H])[H])([H])([H])[H]

>  <h>  (44) 
<NA>

>  <Training>  (44) 
True

>  <Success>  (44) 
True

>  <enamine_searched>  (44) 
False

>  <enamine_id>  (44) 
nan

$$$$

     RDKit          3D

 58 63  0  0  0  0  0  0  0  0999 V2000
   -8.5729    0.5684  -21.0501 O   0  0  0  0  0  0  0  0  0  0  0  0
   -8.1265   -0.2380  -21.8432 C   0  0  0  0  0  0  0  0  0  0  0  0
   -7.3522   -1.4475  -21.3030 C   0  0  0  0  0  0  0  0  0  0  0  0
   -6.4941   -0.9244  -20.1850 C   0  0  0  0  0  0  0  0  0  0  0  0
   -6.8496   -1.1010  -18.8747 C   0  0  0  0  0  0  0  0  0  0  0  0
   -6.2006   -0.5643  -17.8119 N   0  0  0  0  0  0  0  0  0  0  0  0
   -5.1748    0.2106  -18.0747 C   0  0  0  0  0  0  0  0  0  0  0  0
   -4.7225    0.5221  -19.3864 C   0  0  0  0  0  0  0  0  0  0  0  0
   -3.6143    1.3744  -19.6225 C   0  0  0  0  0  0  0  0  0  0  0  0
   -3.2167    1.6644  -20.9004 C   0  0  0  0  0  0  0  0  0  0  0  0
   -3.9279    1.1341  -22.0001 C   0  0  0  0  0  0  0  0  0  0  0  0
   -5.0193    0.3243  -21.7964 C   0  0  0  0  0  0  0  0  0  0  0  0
   -5.4202   -0.0381  -20.4798 C   0  0  0  0  0  0  0  0  0  0  0  0
   -5.5807   -0.0399  -22.6532 H   0  0  0  0  0  0  0  0  0  0  0  0
   -3.6076    1.3701  -23.0133 H   0  0  0  0  0  0  0  0  0  0  0  0
   -2.3600    2.3083  -21.0788 H   0  0  0  0  0  0  0  0  0  0  0  0
   -3.0911    1.7843  -18.7613 H   0  0  0  0  0  0  0  0  0  0  0  0
   -4.6360    0.6267  -17.2222 H   0  0  0  0  0  0  0  0  0  0  0  0
   -7.7323   -1.6908  -18.6288 H   0  0  0  0  0  0  0  0  0  0  0  0
   -6.7562   -1.9501  -22.0667 H   0  0  0  0  0  0  0  0  0  0  0  0
   -8.0706   -2.1835  -20.9266 H   0  0  0  0  0  0  0  0  0  0  0  0
   -8.2182   -0.0321  -23.2087 N   0  0  0  0  0  0  0  0  0  0  0  0
   -8.1211   -1.0796  -24.2227 C   0  0  0  0  0  0  0  0  0  0  0  0
   -9.1908   -2.1545  -24.1227 C   0  0  0  0  0  0  0  0  0  0  0  0
  -10.5357   -1.9435  -24.4377 C   0  0  0  0  0  0  0  0  0  0  0  0
  -11.4518   -2.9831  -24.3154 C   0  0  0  0  0  0  0  0  0  0  0  0
  -11.0798   -4.2391  -23.8558 C   0  0  0  0  0  0  0  0  0  0  0  0
   -9.7391   -4.4539  -23.5800 C   0  0  0  0  0  0  0  0  0  0  0  0
   -9.2042   -6.0479  -23.1212 Cl  0  0  0  0  0  0  0  0  0  0  0  0
   -8.8083   -3.4319  -23.7091 C   0  0  0  0  0  0  0  0  0  0  0  0
   -7.7682   -3.6492  -23.4796 H   0  0  0  0  0  0  0  0  0  0  0  0
  -11.8098   -5.0329  -23.7325 H   0  0  0  0  0  0  0  0  0  0  0  0
  -12.4818   -2.8696  -24.6037 H   0  0  0  0  0  0  0  0  0  0  0  0
  -10.8776   -0.9675  -24.7872 H   0  0  0  0  0  0  0  0  0  0  0  0
   -7.1382   -1.5674  -24.1780 H   0  0  0  0  0  0  0  0  0  0  0  0
   -8.1406   -0.5865  -25.1964 H   0  0  0  0  0  0  0  0  0  0  0  0
   -8.4624    1.3405  -23.5839 C   0  0  2  0  0  0  0  0  0  0  0  0
   -7.4145    2.3698  -23.1254 C   0  0  0  0  0  0  0  0  0  0  0  0
   -8.0449    3.6256  -23.6861 N   0  0  1  0  0  4  0  0  0  0  0  0
   -7.2010    4.4430  -24.5631 C   0  0  0  0  0  0  0  0  0  0  0  0
   -7.5661    5.8779  -24.7641 C   0  0  0  0  0  0  0  0  0  0  0  0
   -6.3542    5.5073  -23.9507 C   0  0  0  0  0  0  0  0  0  0  0  0
   -6.4129    5.5878  -22.8717 H   0  0  0  0  0  0  0  0  0  0  0  0
   -5.3671    5.6856  -24.3596 H   0  0  0  0  0  0  0  0  0  0  0  0
   -7.4233    6.3090  -25.7473 H   0  0  0  0  0  0  0  0  0  0  0  0
   -8.4498    6.2360  -24.2466 H   0  0  0  0  0  0  0  0  0  0  0  0
   -6.8014    3.9183  -25.4181 H   0  0  0  0  0  0  0  0  0  0  0  0
   -9.2649    3.0228  -24.3637 C   0  0  2  0  0  0  0  0  0  0  0  0
   -9.7745    2.0997  -23.2583 C   0  0  0  0  0  0  0  0  0  0  0  0
  -10.6758    1.5527  -23.5312 H   0  0  0  0  0  0  0  0  0  0  0  0
   -9.8481    2.5330  -22.2599 H   0  0  0  0  0  0  0  0  0  0  0  0
   -8.6821    1.7763  -25.0412 C   0  0  0  0  0  0  0  0  0  0  0  0
   -9.4227    1.1584  -25.5392 H   0  0  0  0  0  0  0  0  0  0  0  0
   -7.7965    1.9115  -25.6679 H   0  0  0  0  0  0  0  0  0  0  0  0
   -9.8785    3.7538  -24.8767 H   0  0  0  0  0  0  0  0  0  0  0  0
   -8.3641    4.2241  -22.8984 H   0  0  0  0  0  0  0  0  0  0  0  0
   -7.3440    2.4226  -22.0416 H   0  0  0  0  0  0  0  0  0  0  0  0
   -6.4279    2.2161  -23.5585 H   0  0  0  0  0  0  0  0  0  0  0  0
  1  2  2  0
  2  3  1  0
  3  4  1  0
  4  5  2  0
  5  6  1  0
  6  7  2  0
  7  8  1  0
  8  9  2  0
  9 10  1  0
 10 11  2  0
 11 12  1  0
 12 13  2  0
 12 14  1  0
 11 15  1  0
 10 16  1  0
  9 17  1  0
  7 18  1  0
  5 19  1  0
  3 20  1  0
  3 21  1  0
  2 22  1  0
 22 23  1  0
 23 24  1  0
 24 25  2  0
 25 26  1  0
 26 27  2  0
 27 28  1  0
 28 29  1  0
 28 30  2  0
 30 31  1  0
 27 32  1  0
 26 33  1  0
 25 34  1  0
 23 35  1  0
 23 36  1  0
 37 22  1  6
 37 38  1  0
 38 39  1  0
 39 40  1  0
 40 41  1  0
 41 42  1  0
 42 43  1  0
 42 44  1  0
 41 45  1  0
 41 46  1  0
 40 47  1  0
 39 48  1  0
 48 49  1  0
 49 50  1  0
 49 51  1  0
 48 52  1  0
 52 53  1  0
 52 54  1  0
 48 55  1  6
 39 56  1  1
 38 57  1  0
 38 58  1  0
 13  4  1  0
 30 24  1  0
 49 37  1  0
 13  8  1  0
 52 37  1  0
 42 40  1  0
M  CHG  1  39   1
M  END
>  <cnnaffinities>  (45) 
[5.99616, 6.0459]

>  <score>  (45) 
5.99616

>  <index>  (45) 
47

>  <Smiles>  (45) 
O=C(C(c1c(nc(c2c(c(c(c(c12)[H])[H])[H])[H])[H])[H])([H])[H])N(C(c1c(c(c(c(Cl)c1[H])[H])[H])[H])([H])[H])[C@]12C([N@@+](C3(C(C3([H])[H])([H])[H])[H])([C@](C1([H])[H])(C2([H])[H])[H])[H])([H])[H]

>  <h>  (45) 
<NA>

>  <Training>  (45) 
True

>  <Success>  (45) 
True

>  <enamine_searched>  (45) 
False

>  <enamine_id>  (45) 
nan

$$$$

     RDKit          3D

 46 48  0  0  0  0  0  0  0  0999 V2000
   -8.5209   -6.7750  -25.9041 C   0  0  0  0  0  0  0  0  0  0  0  0
   -9.6181   -6.7234  -24.8445 C   0  0  0  0  0  0  0  0  0  0  0  0
  -10.9826   -6.5495  -25.5087 C   0  0  0  0  0  0  0  0  0  0  0  0
  -11.7885   -6.5197  -24.7708 H   0  0  0  0  0  0  0  0  0  0  0  0
  -11.1923   -7.3740  -26.1985 H   0  0  0  0  0  0  0  0  0  0  0  0
  -11.0369   -5.6270  -26.0951 H   0  0  0  0  0  0  0  0  0  0  0  0
   -9.3746   -5.6731  -23.7308 C   0  0  0  0  0  0  0  0  0  0  0  0
   -9.2863   -4.2308  -24.2388 C   0  0  0  0  0  0  0  0  0  0  0  0
   -8.8350   -3.2509  -23.1581 C   0  0  0  0  0  0  0  0  0  0  0  0
   -7.5546   -3.6299  -22.5667 N   0  0  0  0  0  0  0  0  0  0  0  0
   -6.7695   -2.7733  -21.8330 C   0  0  0  0  0  0  0  0  0  0  0  0
   -5.5951   -3.0218  -21.6041 O   0  0  0  0  0  0  0  0  0  0  0  0
   -7.4184   -1.4849  -21.2645 C   0  0  0  0  0  0  0  0  0  0  0  0
   -6.5820   -0.8302  -20.1851 C   0  0  0  0  0  0  0  0  0  0  0  0
   -6.8739   -1.0443  -18.8650 C   0  0  0  0  0  0  0  0  0  0  0  0
   -6.1843   -0.5497  -17.8024 N   0  0  0  0  0  0  0  0  0  0  0  0
   -5.1585    0.2217  -18.0655 C   0  0  0  0  0  0  0  0  0  0  0  0
   -4.7220    0.5321  -19.3811 C   0  0  0  0  0  0  0  0  0  0  0  0
   -3.5927    1.3589  -19.6209 C   0  0  0  0  0  0  0  0  0  0  0  0
   -3.1898    1.6333  -20.8989 C   0  0  0  0  0  0  0  0  0  0  0  0
   -3.9007    1.0884  -21.9922 C   0  0  0  0  0  0  0  0  0  0  0  0
   -4.9980    0.2884  -21.7861 C   0  0  0  0  0  0  0  0  0  0  0  0
   -5.4457   -0.0121  -20.4744 C   0  0  0  0  0  0  0  0  0  0  0  0
   -5.5231   -0.1337  -22.6372 H   0  0  0  0  0  0  0  0  0  0  0  0
   -3.5719    1.3087  -23.0037 H   0  0  0  0  0  0  0  0  0  0  0  0
   -2.3280    2.2701  -21.0868 H   0  0  0  0  0  0  0  0  0  0  0  0
   -3.0552    1.7748  -18.7696 H   0  0  0  0  0  0  0  0  0  0  0  0
   -4.6033    0.6279  -17.2158 H   0  0  0  0  0  0  0  0  0  0  0  0
   -7.7202   -1.6692  -18.5859 H   0  0  0  0  0  0  0  0  0  0  0  0
   -8.4101   -1.7194  -20.8490 H   0  0  0  0  0  0  0  0  0  0  0  0
   -7.5939   -0.7630  -22.0744 H   0  0  0  0  0  0  0  0  0  0  0  0
   -7.0450   -4.9615  -22.8921 C   0  0  0  0  0  0  0  0  0  0  0  0
   -8.1578   -6.0052  -22.8398 C   0  0  0  0  0  0  0  0  0  0  0  0
   -7.7501   -6.9873  -23.1007 H   0  0  0  0  0  0  0  0  0  0  0  0
   -8.4819   -6.1014  -21.7991 H   0  0  0  0  0  0  0  0  0  0  0  0
   -6.2607   -5.2119  -22.1791 H   0  0  0  0  0  0  0  0  0  0  0  0
   -6.5669   -4.9638  -23.8800 H   0  0  0  0  0  0  0  0  0  0  0  0
   -8.7485   -2.2550  -23.6049 H   0  0  0  0  0  0  0  0  0  0  0  0
   -9.6117   -3.1738  -22.3866 H   0  0  0  0  0  0  0  0  0  0  0  0
  -10.2646   -3.9086  -24.6038 H   0  0  0  0  0  0  0  0  0  0  0  0
   -8.6179   -4.1502  -25.1009 H   0  0  0  0  0  0  0  0  0  0  0  0
  -10.2578   -5.7144  -23.0784 H   0  0  0  0  0  0  0  0  0  0  0  0
   -9.6324   -7.7017  -24.3467 H   0  0  0  0  0  0  0  0  0  0  0  0
   -7.5189   -6.8330  -25.4682 H   0  0  0  0  0  0  0  0  0  0  0  0
   -8.5445   -5.8927  -26.5514 H   0  0  0  0  0  0  0  0  0  0  0  0
   -8.6456   -7.6485  -26.5533 H   0  0  0  0  0  0  0  0  0  0  0  0
  1  2  1  0
  2  3  1  0
  3  4  1  0
  3  5  1  0
  3  6  1  0
  2  7  1  0
  7  8  1  0
  8  9  1  0
  9 10  1  0
 10 11  1  0
 11 12  2  0
 11 13  1  0
 13 14  1  0
 14 15  2  0
 15 16  1  0
 16 17  2  0
 17 18  1  0
 18 19  2  0
 19 20  1  0
 20 21  2  0
 21 22  1  0
 22 23  2  0
 22 24  1  0
 21 25  1  0
 20 26  1  0
 19 27  1  0
 17 28  1  0
 15 29  1  0
 13 30  1  0
 13 31  1  0
 10 32  1  0
 32 33  1  0
 33 34  1  0
 33 35  1  0
 32 36  1  0
 32 37  1  0
  9 38  1  0
  9 39  1  0
  8 40  1  0
  8 41  1  0
  7 42  1  0
  2 43  1  0
  1 44  1  0
  1 45  1  0
  1 46  1  0
 33  7  1  0
 23 14  1  0
 23 18  1  0
M  END
>  <cnnaffinities>  (46) 
[5.45034, 5.47473, 5.47495, 5.4764, 5.45135, 5.45139, 5.45143, 5.46546]

>  <score>  (46) 
5.45034

>  <index>  (46) 
48

>  <Smiles>  (46) 
C(C(C([H])([H])[H])(C1(C(C(N(C(=O)C(c2c(nc(c3c(c(c(c(c23)[H])[H])[H])[H])[H])[H])([H])[H])C(C1([H])[H])([H])[H])([H])[H])([H])[H])[H])[H])([H])([H])[H]

>  <h>  (46) 
<NA>

>  <Training>  (46) 
True

>  <Success>  (46) 
True

>  <enamine_searched>  (46) 
False

>  <enamine_id>  (46) 
nan

$$$$

     RDKit          3D

 67 72  0  0  0  0  0  0  0  0999 V2000
   -5.7579   -0.0570  -29.4089 C   0  0  0  0  0  0  0  0  0  0  0  0
   -5.7232    0.2241  -27.9935 N   0  0  0  0  0  0  0  0  0  0  0  0
   -5.0997   -0.6258  -27.1371 C   0  0  0  0  0  0  0  0  0  0  0  0
   -4.4045   -1.5627  -27.4975 O   0  0  0  0  0  0  0  0  0  0  0  0
   -5.3148   -0.2757  -25.6525 C   0  0  0  0  0  0  0  0  0  0  0  0
   -6.5391   -0.8140  -25.0705 N   0  0  0  0  0  0  0  0  0  0  0  0
   -6.5016   -2.0295  -24.2562 C   0  0  0  0  0  0  0  0  0  0  0  0
   -7.6035   -2.0533  -23.1416 C   0  0  2  0  0  0  0  0  0  0  0  0
   -7.2090   -1.0673  -22.0186 C   0  0  0  0  0  0  0  0  0  0  0  0
   -7.5097    0.1011  -21.9242 O   0  0  0  0  0  0  0  0  0  0  0  0
   -6.4399   -1.7597  -21.1029 N   0  0  0  0  0  0  0  0  0  0  0  0
   -5.8749   -1.0791  -19.9999 C   0  0  0  0  0  0  0  0  0  0  0  0
   -6.3100   -1.3390  -18.7233 C   0  0  0  0  0  0  0  0  0  0  0  0
   -5.8722   -0.7049  -17.6103 N   0  0  0  0  0  0  0  0  0  0  0  0
   -4.9641    0.2291  -17.7701 C   0  0  0  0  0  0  0  0  0  0  0  0
   -4.3935    0.5743  -19.0265 C   0  0  0  0  0  0  0  0  0  0  0  0
   -3.3842    1.5686  -19.1308 C   0  0  0  0  0  0  0  0  0  0  0  0
   -2.8558    1.9057  -20.3474 C   0  0  0  0  0  0  0  0  0  0  0  0
   -3.3214    1.2628  -21.5176 C   0  0  0  0  0  0  0  0  0  0  0  0
   -4.2894    0.2926  -21.4378 C   0  0  0  0  0  0  0  0  0  0  0  0
   -4.8637   -0.0764  -20.1851 C   0  0  0  0  0  0  0  0  0  0  0  0
   -4.6461   -0.1802  -22.3472 H   0  0  0  0  0  0  0  0  0  0  0  0
   -2.9091    1.5466  -22.4828 H   0  0  0  0  0  0  0  0  0  0  0  0
   -2.0943    2.6782  -20.4243 H   0  0  0  0  0  0  0  0  0  0  0  0
   -3.0531    2.0518  -18.2165 H   0  0  0  0  0  0  0  0  0  0  0  0
   -4.6181    0.7555  -16.8812 H   0  0  0  0  0  0  0  0  0  0  0  0
   -7.0837   -2.0881  -18.5650 H   0  0  0  0  0  0  0  0  0  0  0  0
   -6.4175   -3.1987  -21.3619 C   0  0  0  0  0  0  0  0  0  0  0  0
   -7.6115   -3.3586  -22.3084 C   0  0  2  0  0  0  0  0  0  0  0  0
   -7.8388   -4.6808  -23.0538 C   0  0  0  0  0  0  0  0  0  0  0  0
   -6.7610   -5.1685  -23.8910 N   0  0  0  0  0  0  0  0  0  0  0  0
   -5.6773   -5.8298  -23.3720 C   0  0  0  0  0  0  0  0  0  0  0  0
   -5.4601   -6.2459  -22.0955 C   0  0  0  0  0  0  0  0  0  0  0  0
   -4.2491   -6.8375  -21.8537 N   0  0  0  0  0  0  0  0  0  0  0  0
   -3.5291   -6.8917  -22.9301 C   0  0  0  0  0  0  0  0  0  0  0  0
   -2.1234   -7.3845  -22.9911 C   0  0  0  0  0  0  0  0  0  0  0  0
   -1.9795   -8.0998  -23.8066 H   0  0  0  0  0  0  0  0  0  0  0  0
   -1.4463   -6.5425  -23.1759 H   0  0  0  0  0  0  0  0  0  0  0  0
   -1.8660   -7.8456  -22.0351 H   0  0  0  0  0  0  0  0  0  0  0  0
   -4.2964   -6.2393  -24.3547 S   0  0  0  0  0  0  0  0  0  0  0  0
   -6.1628   -6.1138  -21.2795 H   0  0  0  0  0  0  0  0  0  0  0  0
   -7.0016   -5.4105  -24.8423 H   0  0  0  0  0  0  0  0  0  0  0  0
   -8.1384   -5.4593  -22.3318 H   0  0  0  0  0  0  0  0  0  0  0  0
   -8.6990   -4.5270  -23.7166 H   0  0  0  0  0  0  0  0  0  0  0  0
   -8.4781   -3.2699  -21.6493 H   0  0  0  0  0  0  0  0  0  0  0  0
   -6.5083   -3.7560  -20.4259 H   0  0  0  0  0  0  0  0  0  0  0  0
   -5.4817   -3.4952  -21.8505 H   0  0  0  0  0  0  0  0  0  0  0  0
   -8.9316   -1.6979  -23.7558 C   0  0  0  0  0  0  0  0  0  0  0  0
  -10.1615   -2.0905  -23.2009 C   0  0  0  0  0  0  0  0  0  0  0  0
  -11.3462   -1.6065  -23.7276 C   0  0  0  0  0  0  0  0  0  0  0  0
  -12.8409   -2.0319  -22.9274 Cl  0  0  0  0  0  0  0  0  0  0  0  0
  -11.3482   -0.7907  -24.8625 C   0  0  0  0  0  0  0  0  0  0  0  0
  -10.1442   -0.4581  -25.4368 C   0  0  0  0  0  0  0  0  0  0  0  0
   -8.9472   -0.8625  -24.8739 C   0  0  0  0  0  0  0  0  0  0  0  0
   -7.7110   -0.2531  -25.4374 C   0  0  0  0  0  0  0  0  0  0  0  0
   -7.7687    0.7117  -26.2130 O   0  0  0  0  0  0  0  0  0  0  0  0
  -10.0761    0.1162  -26.3462 H   0  0  0  0  0  0  0  0  0  0  0  0
  -12.2538   -0.3777  -25.2822 H   0  0  0  0  0  0  0  0  0  0  0  0
  -10.2172   -2.7289  -22.3242 H   0  0  0  0  0  0  0  0  0  0  0  0
   -5.5051   -2.0836  -23.8007 H   0  0  0  0  0  0  0  0  0  0  0  0
   -6.6355   -2.8950  -24.9116 H   0  0  0  0  0  0  0  0  0  0  0  0
   -4.4696   -0.6810  -25.0986 H   0  0  0  0  0  0  0  0  0  0  0  0
   -5.3312    0.8138  -25.5349 H   0  0  0  0  0  0  0  0  0  0  0  0
   -6.4956    0.7524  -27.6032 H   0  0  0  0  0  0  0  0  0  0  0  0
   -6.1683    0.8140  -29.9257 H   0  0  0  0  0  0  0  0  0  0  0  0
   -6.3687   -0.9380  -29.6397 H   0  0  0  0  0  0  0  0  0  0  0  0
   -4.7480   -0.2296  -29.7845 H   0  0  0  0  0  0  0  0  0  0  0  0
  1  2  1  0
  2  3  1  0
  3  4  2  0
  3  5  1  0
  5  6  1  0
  6  7  1  0
  8  7  1  6
  8  9  1  0
  9 10  2  0
  9 11  1  0
 11 12  1  0
 12 13  2  0
 13 14  1  0
 14 15  2  0
 15 16  1  0
 16 17  2  0
 17 18  1  0
 18 19  2  0
 19 20  1  0
 20 21  2  0
 20 22  1  0
 19 23  1  0
 18 24  1  0
 17 25  1  0
 15 26  1  0
 13 27  1  0
 11 28  1  0
 28 29  1  0
 29 30  1  0
 30 31  1  0
 31 32  1  0
 32 33  2  0
 33 34  1  0
 34 35  2  0
 35 36  1  0
 36 37  1  0
 36 38  1  0
 36 39  1  0
 35 40  1  0
 33 41  1  0
 31 42  1  0
 30 43  1  0
 30 44  1  0
 29 45  1  1
 28 46  1  0
 28 47  1  0
  8 48  1  0
 48 49  2  0
 49 50  1  0
 50 51  1  0
 50 52  2  0
 52 53  1  0
 53 54  2  0
 54 55  1  0
 55 56  2  0
 53 57  1  0
 52 58  1  0
 49 59  1  0
  7 60  1  0
  7 61  1  0
  5 62  1  0
  5 63  1  0
  2 64  1  0
  1 65  1  0
  1 66  1  0
  1 67  1  0
 55  6  1  0
 29  8  1  0
 40 32  1  0
 54 48  1  0
 21 12  1  0
 21 16  1  0
M  END
>  <cnnaffinities>  (47) 
[6.75307, 7.54213]

>  <score>  (47) 
6.75307

>  <index>  (47) 
49

>  <Smiles>  (47) 
C(N(C(=O)C(N1C([C@@]2(C(=O)N(c3c(nc(c4c(c(c(c(c34)[H])[H])[H])[H])[H])[H])C([C@@]2(C(N(c2c(nc(C([H])([H])[H])s2)[H])[H])([H])[H])[H])([H])[H])c2c(c(Cl)c(c(c2C1=O)[H])[H])[H])([H])[H])([H])[H])[H])([H])([H])[H]

>  <h>  (47) 
<NA>

>  <Training>  (47) 
True

>  <Success>  (47) 
True

>  <enamine_searched>  (47) 
False

>  <enamine_id>  (47) 
nan

$$$$

     RDKit          3D

 66 70  0  0  0  0  0  0  0  0999 V2000
   -6.8910    3.0515  -22.1286 C   0  0  0  0  0  0  0  0  0  0  0  0
   -7.4218    2.4195  -23.3229 N   0  0  0  0  0  0  0  0  0  0  0  0
   -6.5957    1.7744  -24.1745 C   0  0  0  0  0  0  0  0  0  0  0  0
   -5.3758    1.8951  -24.1517 O   0  0  0  0  0  0  0  0  0  0  0  0
   -7.2817    0.8397  -25.1815 C   0  0  0  0  0  0  0  0  0  0  0  0
   -7.9638   -0.2505  -24.5020 N   0  0  0  0  0  0  0  0  0  0  0  0
   -7.2150   -1.4361  -24.1188 C   0  0  0  0  0  0  0  0  0  0  0  0
   -7.7189   -2.0846  -22.7902 C   0  0  2  0  0  0  0  0  0  0  0  0
   -7.3016   -1.2020  -21.5962 C   0  0  0  0  0  0  0  0  0  0  0  0
   -7.8921   -0.2356  -21.1600 O   0  0  0  0  0  0  0  0  0  0  0  0
   -6.1169   -1.6950  -21.1013 N   0  0  0  0  0  0  0  0  0  0  0  0
   -5.5023   -1.0653  -19.9943 C   0  0  0  0  0  0  0  0  0  0  0  0
   -5.8045   -1.4582  -18.7193 C   0  0  0  0  0  0  0  0  0  0  0  0
   -5.3311   -0.8609  -17.6001 N   0  0  0  0  0  0  0  0  0  0  0  0
   -4.5309    0.1686  -17.7534 C   0  0  0  0  0  0  0  0  0  0  0  0
   -4.1076    0.6621  -19.0232 C   0  0  0  0  0  0  0  0  0  0  0  0
   -3.2250    1.7692  -19.1651 C   0  0  0  0  0  0  0  0  0  0  0  0
   -2.8160    2.1928  -20.4034 C   0  0  0  0  0  0  0  0  0  0  0  0
   -3.3081    1.5486  -21.5599 C   0  0  0  0  0  0  0  0  0  0  0  0
   -4.1988    0.5101  -21.4575 C   0  0  0  0  0  0  0  0  0  0  0  0
   -4.6034    0.0237  -20.1847 C   0  0  0  0  0  0  0  0  0  0  0  0
   -4.6244    0.0690  -22.3551 H   0  0  0  0  0  0  0  0  0  0  0  0
   -3.0089    1.8872  -22.5469 H   0  0  0  0  0  0  0  0  0  0  0  0
   -2.1278    3.0316  -20.5067 H   0  0  0  0  0  0  0  0  0  0  0  0
   -2.9065    2.2957  -18.2730 H   0  0  0  0  0  0  0  0  0  0  0  0
   -4.1900    0.6605  -16.8416 H   0  0  0  0  0  0  0  0  0  0  0  0
   -6.4875   -2.2899  -18.5588 H   0  0  0  0  0  0  0  0  0  0  0  0
   -5.6514   -2.8950  -21.7690 C   0  0  0  0  0  0  0  0  0  0  0  0
   -6.9301   -3.3927  -22.4842 C   0  0  2  0  0  0  0  0  0  0  0  0
   -6.6244   -4.3174  -23.6684 C   0  0  0  0  0  0  0  0  0  0  0  0
   -6.1971   -5.5698  -23.1727 O   0  0  0  0  0  0  0  0  0  0  0  0
   -5.1343   -6.1850  -23.8952 C   0  0  0  0  0  0  0  0  0  0  0  0
   -4.7807   -7.4495  -23.1222 C   0  0  0  0  0  0  0  0  0  0  0  0
   -3.8455   -7.8860  -23.4922 H   0  0  0  0  0  0  0  0  0  0  0  0
   -4.6567   -7.2101  -22.0619 H   0  0  0  0  0  0  0  0  0  0  0  0
   -5.5772   -8.1980  -23.2092 H   0  0  0  0  0  0  0  0  0  0  0  0
   -5.4949   -6.4606  -25.3586 C   0  0  0  0  0  0  0  0  0  0  0  0
   -5.7998   -5.5420  -25.8752 H   0  0  0  0  0  0  0  0  0  0  0  0
   -6.3160   -7.1840  -25.4380 H   0  0  0  0  0  0  0  0  0  0  0  0
   -4.6216   -6.8588  -25.8891 H   0  0  0  0  0  0  0  0  0  0  0  0
   -4.2595   -5.5067  -23.8808 H   0  0  0  0  0  0  0  0  0  0  0  0
   -7.5098   -4.4525  -24.3144 H   0  0  0  0  0  0  0  0  0  0  0  0
   -5.8280   -3.8660  -24.2885 H   0  0  0  0  0  0  0  0  0  0  0  0
   -7.5099   -3.9804  -21.7686 H   0  0  0  0  0  0  0  0  0  0  0  0
   -4.8681   -2.6661  -22.5132 H   0  0  0  0  0  0  0  0  0  0  0  0
   -5.2364   -3.5948  -21.0387 H   0  0  0  0  0  0  0  0  0  0  0  0
   -9.2267   -2.1896  -22.8442 C   0  0  0  0  0  0  0  0  0  0  0  0
   -9.9647   -3.0849  -22.0567 C   0  0  0  0  0  0  0  0  0  0  0  0
  -11.3452   -3.0550  -22.1578 C   0  0  0  0  0  0  0  0  0  0  0  0
  -12.0796   -3.8128  -21.3377 F   0  0  0  0  0  0  0  0  0  0  0  0
  -12.0371   -2.2702  -23.0686 C   0  0  0  0  0  0  0  0  0  0  0  0
  -11.3163   -1.3507  -23.7980 C   0  0  0  0  0  0  0  0  0  0  0  0
   -9.9443   -1.2580  -23.6066 C   0  0  0  0  0  0  0  0  0  0  0  0
   -9.2611   -0.0679  -24.1751 C   0  0  0  0  0  0  0  0  0  0  0  0
   -9.8236    1.0170  -24.3330 O   0  0  0  0  0  0  0  0  0  0  0  0
  -11.7794   -0.6258  -24.4635 H   0  0  0  0  0  0  0  0  0  0  0  0
  -13.1158   -2.3444  -23.1272 H   0  0  0  0  0  0  0  0  0  0  0  0
   -9.5130   -3.7720  -21.3492 H   0  0  0  0  0  0  0  0  0  0  0  0
   -6.1690   -1.1293  -24.0106 H   0  0  0  0  0  0  0  0  0  0  0  0
   -7.2867   -2.1833  -24.9178 H   0  0  0  0  0  0  0  0  0  0  0  0
   -8.0499    1.3803  -25.7460 H   0  0  0  0  0  0  0  0  0  0  0  0
   -6.5204    0.4564  -25.8659 H   0  0  0  0  0  0  0  0  0  0  0  0
   -8.4243    2.2699  -23.4180 H   0  0  0  0  0  0  0  0  0  0  0  0
   -6.0017    3.6306  -22.4016 H   0  0  0  0  0  0  0  0  0  0  0  0
   -7.6532    3.7154  -21.7085 H   0  0  0  0  0  0  0  0  0  0  0  0
   -6.5973    2.2945  -21.3827 H   0  0  0  0  0  0  0  0  0  0  0  0
  1  2  1  0
  2  3  1  0
  3  4  2  0
  3  5  1  0
  5  6  1  0
  6  7  1  0
  8  7  1  6
  8  9  1  0
  9 10  2  0
  9 11  1  0
 11 12  1  0
 12 13  2  0
 13 14  1  0
 14 15  2  0
 15 16  1  0
 16 17  2  0
 17 18  1  0
 18 19  2  0
 19 20  1  0
 20 21  2  0
 20 22  1  0
 19 23  1  0
 18 24  1  0
 17 25  1  0
 15 26  1  0
 13 27  1  0
 11 28  1  0
 28 29  1  0
 29 30  1  0
 30 31  1  0
 31 32  1  0
 32 33  1  0
 33 34  1  0
 33 35  1  0
 33 36  1  0
 32 37  1  0
 37 38  1  0
 37 39  1  0
 37 40  1  0
 32 41  1  0
 30 42  1  0
 30 43  1  0
 29 44  1  1
 28 45  1  0
 28 46  1  0
  8 47  1  0
 47 48  2  0
 48 49  1  0
 49 50  1  0
 49 51  2  0
 51 52  1  0
 52 53  2  0
 53 54  1  0
 54 55  2  0
 52 56  1  0
 51 57  1  0
 48 58  1  0
  7 59  1  0
  7 60  1  0
  5 61  1  0
  5 62  1  0
  2 63  1  0
  1 64  1  0
  1 65  1  0
  1 66  1  0
 54  6  1  0
 29  8  1  0
 53 47  1  0
 21 12  1  0
 21 16  1  0
M  END
>  <cnnaffinities>  (48) 
[6.35018, 6.35286]

>  <score>  (48) 
6.35018

>  <index>  (48) 
50

>  <Smiles>  (48) 
C(N(C(=O)C(N1C([C@@]2(C(=O)N(c3c(nc(c4c(c(c(c(c34)[H])[H])[H])[H])[H])[H])C([C@@]2(C(OC(C([H])([H])[H])(C([H])([H])[H])[H])([H])[H])[H])([H])[H])c2c(c(F)c(c(c2C1=O)[H])[H])[H])([H])[H])([H])[H])[H])([H])([H])[H]

>  <h>  (48) 
<NA>

>  <Training>  (48) 
True

>  <Success>  (48) 
True

>  <enamine_searched>  (48) 
False

>  <enamine_id>  (48) 
nan

$$$$

     RDKit          3D

 50 52  0  0  0  0  0  0  0  0999 V2000
   -9.7229   -0.9747  -26.4797 C   0  0  0  0  0  0  0  0  0  0  0  0
   -9.1431   -0.3156  -25.4771 C   0  0  0  0  0  0  0  0  0  0  0  0
   -9.6445   -0.4640  -24.0488 C   0  0  0  0  0  0  0  0  0  0  0  0
   -8.7649   -1.2434  -23.1661 N   0  0  0  0  0  0  0  0  0  0  0  0
   -8.1030   -0.5534  -22.1494 C   0  0  0  0  0  0  0  0  0  0  0  0
   -8.1598    0.6627  -22.0449 O   0  0  0  0  0  0  0  0  0  0  0  0
   -7.3759   -1.3458  -21.2773 N   0  0  0  0  0  0  0  0  0  0  0  0
   -6.6103   -0.7915  -20.2159 C   0  0  0  0  0  0  0  0  0  0  0  0
   -6.9061   -1.0536  -18.9021 C   0  0  0  0  0  0  0  0  0  0  0  0
   -6.2069   -0.5679  -17.8432 N   0  0  0  0  0  0  0  0  0  0  0  0
   -5.1811    0.2072  -18.0921 C   0  0  0  0  0  0  0  0  0  0  0  0
   -4.7363    0.5338  -19.4005 C   0  0  0  0  0  0  0  0  0  0  0  0
   -3.5945    1.3476  -19.6343 C   0  0  0  0  0  0  0  0  0  0  0  0
   -3.1725    1.6029  -20.9093 C   0  0  0  0  0  0  0  0  0  0  0  0
   -3.8696    1.0480  -22.0086 C   0  0  0  0  0  0  0  0  0  0  0  0
   -4.9782    0.2687  -21.8093 C   0  0  0  0  0  0  0  0  0  0  0  0
   -5.4605    0.0116  -20.4971 C   0  0  0  0  0  0  0  0  0  0  0  0
   -5.5189   -0.1630  -22.6460 H   0  0  0  0  0  0  0  0  0  0  0  0
   -3.5342    1.2598  -23.0199 H   0  0  0  0  0  0  0  0  0  0  0  0
   -2.3101    2.2387  -21.0822 H   0  0  0  0  0  0  0  0  0  0  0  0
   -3.0784    1.7636  -18.7738 H   0  0  0  0  0  0  0  0  0  0  0  0
   -4.6423    0.6074  -17.2335 H   0  0  0  0  0  0  0  0  0  0  0  0
   -7.7510   -1.6818  -18.6202 H   0  0  0  0  0  0  0  0  0  0  0  0
   -7.6607   -2.3133  -21.1905 H   0  0  0  0  0  0  0  0  0  0  0  0
   -8.4385   -2.5699  -23.5915 C   0  0  0  0  0  0  0  0  0  0  0  0
   -9.4468   -3.5211  -23.7558 C   0  0  0  0  0  0  0  0  0  0  0  0
   -9.1349   -4.8213  -24.1419 C   0  0  0  0  0  0  0  0  0  0  0  0
   -7.8221   -5.1880  -24.4156 C   0  0  0  0  0  0  0  0  0  0  0  0
   -6.8368   -4.2166  -24.3082 C   0  0  0  0  0  0  0  0  0  0  0  0
   -5.1866   -4.6567  -24.6430 Cl  0  0  0  0  0  0  0  0  0  0  0  0
   -7.1236   -2.9163  -23.9150 C   0  0  0  0  0  0  0  0  0  0  0  0
   -6.3235   -2.1839  -23.8559 H   0  0  0  0  0  0  0  0  0  0  0  0
   -7.5629   -6.1996  -24.7137 H   0  0  0  0  0  0  0  0  0  0  0  0
   -9.9275   -5.5600  -24.2304 H   0  0  0  0  0  0  0  0  0  0  0  0
  -10.4779   -3.2381  -23.5611 H   0  0  0  0  0  0  0  0  0  0  0  0
   -9.7922    0.4913  -23.5444 H   0  0  0  0  0  0  0  0  0  0  0  0
  -10.6099   -0.9802  -24.1015 H   0  0  0  0  0  0  0  0  0  0  0  0
   -7.8951    0.4755  -25.7933 C   0  0  0  0  0  0  0  0  0  0  0  0
   -7.2187    0.2088  -26.7805 O   0  0  0  0  0  0  0  0  0  0  0  0
   -7.5645    1.4757  -24.9370 N   0  0  0  0  0  0  0  0  0  0  0  0
   -6.2418    2.0763  -25.0156 C   0  0  0  0  0  0  0  0  0  0  0  0
   -6.0621    3.1716  -23.9681 C   0  0  0  0  0  0  0  0  0  0  0  0
   -6.7346    4.0227  -24.1333 H   0  0  0  0  0  0  0  0  0  0  0  0
   -6.2206    2.7854  -22.9496 H   0  0  0  0  0  0  0  0  0  0  0  0
   -5.0405    3.5623  -24.0127 H   0  0  0  0  0  0  0  0  0  0  0  0
   -6.0756    2.4525  -26.0342 H   0  0  0  0  0  0  0  0  0  0  0  0
   -5.4882    1.2847  -24.8683 H   0  0  0  0  0  0  0  0  0  0  0  0
   -8.1945    1.7894  -24.2107 H   0  0  0  0  0  0  0  0  0  0  0  0
   -9.3252   -0.9499  -27.4893 H   0  0  0  0  0  0  0  0  0  0  0  0
  -10.6172   -1.5727  -26.3160 H   0  0  0  0  0  0  0  0  0  0  0  0
  1  2  2  0
  2  3  1  0
  3  4  1  0
  4  5  1  0
  5  6  2  0
  5  7  1  0
  7  8  1  0
  8  9  2  0
  9 10  1  0
 10 11  2  0
 11 12  1  0
 12 13  2  0
 13 14  1  0
 14 15  2  0
 15 16  1  0
 16 17  2  0
 16 18  1  0
 15 19  1  0
 14 20  1  0
 13 21  1  0
 11 22  1  0
  9 23  1  0
  7 24  1  0
  4 25  1  0
 25 26  2  0
 26 27  1  0
 27 28  2  0
 28 29  1  0
 29 30  1  0
 29 31  2  0
 31 32  1  0
 28 33  1  0
 27 34  1  0
 26 35  1  0
  3 36  1  0
  3 37  1  0
  2 38  1  0
 38 39  2  0
 38 40  1  0
 40 41  1  0
 41 42  1  0
 42 43  1  0
 42 44  1  0
 42 45  1  0
 41 46  1  0
 41 47  1  0
 40 48  1  0
  1 49  1  0
  1 50  1  0
 17  8  1  0
 31 25  1  0
 17 12  1  0
M  END
>  <cnnaffinities>  (49) 
[5.78412, 5.5867]

>  <score>  (49) 
5.78412

>  <index>  (49) 
51

>  <Smiles>  (49) 
C(=C(C(N(C(=O)N(c1c(nc(c2c(c(c(c(c12)[H])[H])[H])[H])[H])[H])[H])c1c(c(c(c(Cl)c1[H])[H])[H])[H])([H])[H])C(=O)N(C(C([H])([H])[H])([H])[H])[H])([H])[H]

>  <h>  (49) 
<NA>

>  <Training>  (49) 
True

>  <Success>  (49) 
True

>  <enamine_searched>  (49) 
False

>  <enamine_id>  (49) 
nan

$$$$

     RDKit          3D

 57 60  0  0  0  0  0  0  0  0999 V2000
   -2.8087   -4.2733  -29.7960 C   0  0  0  0  0  0  0  0  0  0  0  0
   -2.7760   -3.3242  -28.5959 C   0  0  0  0  0  0  0  0  0  0  0  0
   -3.9194   -3.5508  -27.6286 C   0  0  0  0  0  0  0  0  0  0  0  0
   -4.9842   -2.9680  -27.7184 O   0  0  0  0  0  0  0  0  0  0  0  0
   -3.6617   -4.4783  -26.6519 N   0  0  0  0  0  0  0  0  0  0  0  0
   -4.5153   -4.7312  -25.5617 C   0  0  0  0  0  0  0  0  0  0  0  0
   -4.5881   -6.0258  -25.0471 C   0  0  0  0  0  0  0  0  0  0  0  0
   -5.4418   -6.2961  -23.9862 C   0  0  0  0  0  0  0  0  0  0  0  0
   -6.1674   -5.2770  -23.3805 C   0  0  0  0  0  0  0  0  0  0  0  0
   -6.0429   -3.9787  -23.8705 C   0  0  0  0  0  0  0  0  0  0  0  0
   -6.7920   -2.9122  -23.2789 N   0  0  0  0  0  0  0  0  0  0  0  0
   -7.8237   -2.2607  -24.0911 C   0  0  0  0  0  0  0  0  0  0  0  0
   -9.2457   -2.6423  -23.7075 C   0  0  0  0  0  0  0  0  0  0  0  0
  -10.2597   -1.7137  -23.4875 C   0  0  0  0  0  0  0  0  0  0  0  0
  -11.5539   -2.1431  -23.2143 C   0  0  0  0  0  0  0  0  0  0  0  0
  -11.8451   -3.4900  -23.0631 C   0  0  0  0  0  0  0  0  0  0  0  0
  -10.8508   -4.4250  -23.3101 C   0  0  0  0  0  0  0  0  0  0  0  0
   -9.5797   -3.9962  -23.6649 C   0  0  0  0  0  0  0  0  0  0  0  0
   -8.8270   -4.7377  -23.9190 H   0  0  0  0  0  0  0  0  0  0  0  0
  -11.0722   -5.4868  -23.2479 H   0  0  0  0  0  0  0  0  0  0  0  0
  -12.8365   -3.8217  -22.7617 H   0  0  0  0  0  0  0  0  0  0  0  0
  -12.3431   -1.4069  -23.1644 H   0  0  0  0  0  0  0  0  0  0  0  0
  -10.0631   -0.6394  -23.5165 H   0  0  0  0  0  0  0  0  0  0  0  0
   -7.6998   -1.1673  -24.0949 H   0  0  0  0  0  0  0  0  0  0  0  0
   -7.6512   -2.6007  -25.1182 H   0  0  0  0  0  0  0  0  0  0  0  0
   -6.6087   -2.6892  -21.9249 C   0  0  0  0  0  0  0  0  0  0  0  0
   -5.8724   -3.3826  -21.2417 O   0  0  0  0  0  0  0  0  0  0  0  0
   -7.3553   -1.5051  -21.3079 C   0  0  0  0  0  0  0  0  0  0  0  0
   -6.5696   -0.8497  -20.2093 C   0  0  0  0  0  0  0  0  0  0  0  0
   -6.8847   -1.0766  -18.8986 C   0  0  0  0  0  0  0  0  0  0  0  0
   -6.2155   -0.5806  -17.8248 N   0  0  0  0  0  0  0  0  0  0  0  0
   -5.1881    0.1930  -18.0785 C   0  0  0  0  0  0  0  0  0  0  0  0
   -4.7353    0.5148  -19.3896 C   0  0  0  0  0  0  0  0  0  0  0  0
   -3.6077    1.3471  -19.6163 C   0  0  0  0  0  0  0  0  0  0  0  0
   -3.1937    1.6294  -20.8891 C   0  0  0  0  0  0  0  0  0  0  0  0
   -3.8901    1.0904  -21.9928 C   0  0  0  0  0  0  0  0  0  0  0  0
   -4.9846    0.2849  -21.8034 C   0  0  0  0  0  0  0  0  0  0  0  0
   -5.4411   -0.0239  -20.4921 C   0  0  0  0  0  0  0  0  0  0  0  0
   -5.5065   -0.1177  -22.6672 H   0  0  0  0  0  0  0  0  0  0  0  0
   -3.5554    1.3223  -23.0007 H   0  0  0  0  0  0  0  0  0  0  0  0
   -2.3331    2.2717  -21.0643 H   0  0  0  0  0  0  0  0  0  0  0  0
   -3.0882    1.7651  -18.7582 H   0  0  0  0  0  0  0  0  0  0  0  0
   -4.6481    0.6056  -17.2238 H   0  0  0  0  0  0  0  0  0  0  0  0
   -7.7372   -1.7131  -18.6603 H   0  0  0  0  0  0  0  0  0  0  0  0
   -7.6035   -0.7772  -22.0840 H   0  0  0  0  0  0  0  0  0  0  0  0
   -8.2994   -1.9007  -20.9079 H   0  0  0  0  0  0  0  0  0  0  0  0
   -5.2640   -3.7072  -24.9908 C   0  0  0  0  0  0  0  0  0  0  0  0
   -5.2364   -2.7082  -25.4163 H   0  0  0  0  0  0  0  0  0  0  0  0
   -6.8194   -5.4679  -22.5311 H   0  0  0  0  0  0  0  0  0  0  0  0
   -5.5358   -7.3094  -23.6117 H   0  0  0  0  0  0  0  0  0  0  0  0
   -4.0131   -6.8217  -25.5123 H   0  0  0  0  0  0  0  0  0  0  0  0
   -2.8266   -5.0373  -26.7189 H   0  0  0  0  0  0  0  0  0  0  0  0
   -1.8201   -3.4094  -28.0619 H   0  0  0  0  0  0  0  0  0  0  0  0
   -2.8784   -2.2987  -28.9518 H   0  0  0  0  0  0  0  0  0  0  0  0
   -2.6582   -5.3122  -29.4891 H   0  0  0  0  0  0  0  0  0  0  0  0
   -2.0073   -4.0072  -30.4943 H   0  0  0  0  0  0  0  0  0  0  0  0
   -3.7644   -4.2162  -30.3292 H   0  0  0  0  0  0  0  0  0  0  0  0
  1  2  1  0
  2  3  1  0
  3  4  2  0
  3  5  1  0
  5  6  1  0
  6  7  2  0
  7  8  1  0
  8  9  2  0
  9 10  1  0
 10 11  1  0
 11 12  1  0
 12 13  1  0
 13 14  2  0
 14 15  1  0
 15 16  2  0
 16 17  1  0
 17 18  2  0
 18 19  1  0
 17 20  1  0
 16 21  1  0
 15 22  1  0
 14 23  1  0
 12 24  1  0
 12 25  1  0
 11 26  1  0
 26 27  2  0
 26 28  1  0
 28 29  1  0
 29 30  2  0
 30 31  1  0
 31 32  2  0
 32 33  1  0
 33 34  2  0
 34 35  1  0
 35 36  2  0
 36 37  1  0
 37 38  2  0
 37 39  1  0
 36 40  1  0
 35 41  1  0
 34 42  1  0
 32 43  1  0
 30 44  1  0
 28 45  1  0
 28 46  1  0
 10 47  2  0
 47 48  1  0
  9 49  1  0
  8 50  1  0
  7 51  1  0
  5 52  1  0
  2 53  1  0
  2 54  1  0
  1 55  1  0
  1 56  1  0
  1 57  1  0
 47  6  1  0
 18 13  1  0
 38 29  1  0
 38 33  1  0
M  END
>  <cnnaffinities>  (50) 
[5.84949, 6.16078, 6.16112, 5.83182, 5.98924, 6.14917, 6.14861, 6.12971, 5.94914, 5.87417, 6.10429, 6.10356, 6.01208, 6.13728, 6.37454, 6.10841, 5.91098, 6.12224]

>  <score>  (50) 
5.84949

>  <index>  (50) 
52

>  <Smiles>  (50) 
C(C(C(=O)N(c1c(c(c(c(N(C(c2c(c(c(c(c2[H])[H])[H])[H])[H])([H])[H])C(=O)C(c2c(nc(c3c(c(c(c(c23)[H])[H])[H])[H])[H])[H])([H])[H])c1[H])[H])[H])[H])[H])([H])[H])([H])([H])[H]

>  <h>  (50) 
<NA>

>  <Training>  (50) 
True

>  <Success>  (50) 
True

>  <enamine_searched>  (50) 
False

>  <enamine_id>  (50) 
nan

$$$$

     RDKit          3D

 59 63  0  0  0  0  0  0  0  0999 V2000
   -5.1427   -8.3013  -23.6985 C   0  0  0  0  0  0  0  0  0  0  0  0
   -6.0783   -8.7393  -22.5680 C   0  0  0  0  0  0  0  0  0  0  0  0
   -7.1605   -7.7972  -22.3012 N   0  0  0  0  0  0  0  0  0  0  0  0
   -8.2008   -7.6595  -23.1833 C   0  0  0  0  0  0  0  0  0  0  0  0
   -8.4593   -8.4787  -24.0406 O   0  0  0  0  0  0  0  0  0  0  0  0
   -9.0320   -6.3848  -23.0316 C   0  0  0  0  0  0  0  0  0  0  0  0
   -8.4395   -5.2156  -23.6451 N   0  0  0  0  0  0  0  0  0  0  0  0
   -7.5354   -4.4264  -22.8358 C   0  0  0  0  0  0  0  0  0  0  0  0
   -7.7154   -2.9130  -23.0383 C   0  0  2  0  0  0  0  0  0  0  0  0
   -6.6600   -2.2674  -22.1455 C   0  0  0  0  0  0  0  0  0  0  0  0
   -5.4795   -2.5655  -22.0770 O   0  0  0  0  0  0  0  0  0  0  0  0
   -7.2756   -1.3517  -21.3324 N   0  0  0  0  0  0  0  0  0  0  0  0
   -6.5640   -0.7765  -20.2585 C   0  0  0  0  0  0  0  0  0  0  0  0
   -6.9303   -1.0180  -18.9572 C   0  0  0  0  0  0  0  0  0  0  0  0
   -6.2603   -0.5523  -17.8777 N   0  0  0  0  0  0  0  0  0  0  0  0
   -5.2096    0.2049  -18.1027 C   0  0  0  0  0  0  0  0  0  0  0  0
   -4.7338    0.5432  -19.4033 C   0  0  0  0  0  0  0  0  0  0  0  0
   -3.5941    1.3697  -19.5980 C   0  0  0  0  0  0  0  0  0  0  0  0
   -3.1660    1.6809  -20.8631 C   0  0  0  0  0  0  0  0  0  0  0  0
   -3.8515    1.1751  -21.9884 C   0  0  0  0  0  0  0  0  0  0  0  0
   -4.9520    0.3760  -21.8251 C   0  0  0  0  0  0  0  0  0  0  0  0
   -5.4225    0.0381  -20.5211 C   0  0  0  0  0  0  0  0  0  0  0  0
   -5.4597   -0.0130  -22.6998 H   0  0  0  0  0  0  0  0  0  0  0  0
   -3.5033    1.4164  -22.9894 H   0  0  0  0  0  0  0  0  0  0  0  0
   -2.3027    2.3229  -21.0102 H   0  0  0  0  0  0  0  0  0  0  0  0
   -3.0806    1.7555  -18.7230 H   0  0  0  0  0  0  0  0  0  0  0  0
   -4.6794    0.5843  -17.2303 H   0  0  0  0  0  0  0  0  0  0  0  0
   -7.7845   -1.6581  -18.7386 H   0  0  0  0  0  0  0  0  0  0  0  0
   -8.6338   -1.0509  -21.7432 C   0  0  0  0  0  0  0  0  0  0  0  0
   -9.0729   -2.3092  -22.5138 C   0  0  2  0  0  0  0  0  0  0  0  0
   -9.9602   -3.2502  -21.6955 C   0  0  0  0  0  0  0  0  0  0  0  0
  -10.9485   -2.7990  -21.5449 H   0  0  0  0  0  0  0  0  0  0  0  0
  -10.0979   -4.1854  -22.2453 H   0  0  0  0  0  0  0  0  0  0  0  0
   -9.5301   -3.4692  -20.7135 H   0  0  0  0  0  0  0  0  0  0  0  0
   -9.6790   -2.0161  -23.3783 H   0  0  0  0  0  0  0  0  0  0  0  0
   -8.6390   -0.1683  -22.4019 H   0  0  0  0  0  0  0  0  0  0  0  0
   -9.2625   -0.8390  -20.8777 H   0  0  0  0  0  0  0  0  0  0  0  0
   -7.6243   -2.6391  -24.5276 C   0  0  0  0  0  0  0  0  0  0  0  0
   -7.2442   -1.3882  -25.0315 C   0  0  0  0  0  0  0  0  0  0  0  0
   -7.4741   -1.0812  -26.3682 C   0  0  0  0  0  0  0  0  0  0  0  0
   -7.0940    0.5089  -26.9843 Cl  0  0  0  0  0  0  0  0  0  0  0  0
   -8.0703   -2.0001  -27.2298 C   0  0  0  0  0  0  0  0  0  0  0  0
   -8.4268   -3.2403  -26.7321 C   0  0  0  0  0  0  0  0  0  0  0  0
   -8.2113   -3.5685  -25.3991 C   0  0  0  0  0  0  0  0  0  0  0  0
   -8.7608   -4.8882  -24.9344 C   0  0  0  0  0  0  0  0  0  0  0  0
   -9.4599   -5.6011  -25.6420 O   0  0  0  0  0  0  0  0  0  0  0  0
   -8.9149   -3.9849  -27.3493 H   0  0  0  0  0  0  0  0  0  0  0  0
   -8.2706   -1.7228  -28.2613 H   0  0  0  0  0  0  0  0  0  0  0  0
   -6.8191   -0.6345  -24.3752 H   0  0  0  0  0  0  0  0  0  0  0  0
   -6.4921   -4.6620  -23.0709 H   0  0  0  0  0  0  0  0  0  0  0  0
   -7.6808   -4.6377  -21.7723 H   0  0  0  0  0  0  0  0  0  0  0  0
  -10.0050   -6.5674  -23.4898 H   0  0  0  0  0  0  0  0  0  0  0  0
   -9.1338   -6.1660  -21.9633 H   0  0  0  0  0  0  0  0  0  0  0  0
   -6.9291   -7.0162  -21.7054 H   0  0  0  0  0  0  0  0  0  0  0  0
   -6.5113   -9.7247  -22.7613 H   0  0  0  0  0  0  0  0  0  0  0  0
   -5.5146   -8.8064  -21.6365 H   0  0  0  0  0  0  0  0  0  0  0  0
   -4.4617   -7.5139  -23.3588 H   0  0  0  0  0  0  0  0  0  0  0  0
   -4.5359   -9.1420  -24.0465 H   0  0  0  0  0  0  0  0  0  0  0  0
   -5.7107   -7.9154  -24.5509 H   0  0  0  0  0  0  0  0  0  0  0  0
  1  2  1  0
  2  3  1  0
  3  4  1  0
  4  5  2  0
  4  6  1  0
  6  7  1  0
  7  8  1  0
  9  8  1  6
  9 10  1  0
 10 11  2  0
 10 12  1  0
 12 13  1  0
 13 14  2  0
 14 15  1  0
 15 16  2  0
 16 17  1  0
 17 18  2  0
 18 19  1  0
 19 20  2  0
 20 21  1  0
 21 22  2  0
 21 23  1  0
 20 24  1  0
 19 25  1  0
 18 26  1  0
 16 27  1  0
 14 28  1  0
 12 29  1  0
 29 30  1  0
 30 31  1  0
 31 32  1  0
 31 33  1  0
 31 34  1  0
 30 35  1  6
 29 36  1  0
 29 37  1  0
  9 38  1  0
 38 39  2  0
 39 40  1  0
 40 41  1  0
 40 42  2  0
 42 43  1  0
 43 44  2  0
 44 45  1  0
 45 46  2  0
 43 47  1  0
 42 48  1  0
 39 49  1  0
  8 50  1  0
  8 51  1  0
  6 52  1  0
  6 53  1  0
  3 54  1  0
  2 55  1  0
  2 56  1  0
  1 57  1  0
  1 58  1  0
  1 59  1  0
 45  7  1  0
 30  9  1  0
 44 38  1  0
 22 13  1  0
 22 17  1  0
M  END
>  <cnnaffinities>  (51) 
[6.64852]

>  <score>  (51) 
6.64852

>  <index>  (51) 
53

>  <Smiles>  (51) 
C(C(N(C(=O)C(N1C([C@@]2(C(=O)N(c3c(nc(c4c(c(c(c(c34)[H])[H])[H])[H])[H])[H])C([C@@]2(C([H])([H])[H])[H])([H])[H])c2c(c(Cl)c(c(c2C1=O)[H])[H])[H])([H])[H])([H])[H])[H])([H])[H])([H])([H])[H]

>  <h>  (51) 
<NA>

>  <Training>  (51) 
True

>  <Success>  (51) 
True

>  <enamine_searched>  (51) 
False

>  <enamine_id>  (51) 
nan

$$$$

     RDKit          3D

 40 43  0  0  0  0  0  0  0  0999 V2000
  -10.3206   -2.6555  -22.7805 C   0  0  0  0  0  0  0  0  0  0  0  0
   -8.9658   -2.2897  -22.4223 N   0  0  0  0  0  0  0  0  0  0  0  0
   -7.7638   -2.7134  -22.9059 C   0  0  0  0  0  0  0  0  0  0  0  0
   -7.6541   -3.6399  -24.0616 C   0  0  0  0  0  0  0  0  0  0  0  0
   -7.8730   -5.0527  -23.5795 C   0  0  0  0  0  0  0  0  0  0  0  0
   -9.0479   -5.7400  -23.8667 C   0  0  0  0  0  0  0  0  0  0  0  0
   -9.1952   -7.0643  -23.4717 C   0  0  0  0  0  0  0  0  0  0  0  0
   -8.2158   -7.6627  -22.6847 C   0  0  0  0  0  0  0  0  0  0  0  0
   -7.0634   -6.9616  -22.3427 C   0  0  0  0  0  0  0  0  0  0  0  0
   -6.8897   -5.6597  -22.8002 C   0  0  0  0  0  0  0  0  0  0  0  0
   -5.9839   -5.1009  -22.5712 H   0  0  0  0  0  0  0  0  0  0  0  0
   -6.2878   -7.4417  -21.7483 H   0  0  0  0  0  0  0  0  0  0  0  0
   -8.3561   -8.6733  -22.3206 H   0  0  0  0  0  0  0  0  0  0  0  0
  -10.0654   -7.6294  -23.8021 H   0  0  0  0  0  0  0  0  0  0  0  0
   -9.8594   -5.2402  -24.3977 H   0  0  0  0  0  0  0  0  0  0  0  0
   -8.3922   -3.3916  -24.8335 H   0  0  0  0  0  0  0  0  0  0  0  0
   -6.6622   -3.5270  -24.5132 H   0  0  0  0  0  0  0  0  0  0  0  0
   -6.7633   -2.2695  -22.2045 N   0  0  0  0  0  0  0  0  0  0  0  0
   -7.3247   -1.4569  -21.2593 N   0  0  0  0  0  0  0  0  0  0  0  0
   -6.5717   -0.8628  -20.2087 C   0  0  0  0  0  0  0  0  0  0  0  0
   -6.9009   -1.0772  -18.8894 C   0  0  0  0  0  0  0  0  0  0  0  0
   -6.2116   -0.5685  -17.8420 N   0  0  0  0  0  0  0  0  0  0  0  0
   -5.1810    0.1973  -18.1036 C   0  0  0  0  0  0  0  0  0  0  0  0
   -4.7376    0.5157  -19.4137 C   0  0  0  0  0  0  0  0  0  0  0  0
   -3.6160    1.3576  -19.6335 C   0  0  0  0  0  0  0  0  0  0  0  0
   -3.2274    1.6658  -20.9069 C   0  0  0  0  0  0  0  0  0  0  0  0
   -3.9534    1.1579  -22.0063 C   0  0  0  0  0  0  0  0  0  0  0  0
   -5.0407    0.3430  -21.8221 C   0  0  0  0  0  0  0  0  0  0  0  0
   -5.4534   -0.0233  -20.5112 C   0  0  0  0  0  0  0  0  0  0  0  0
   -5.5977   -0.0495  -22.6667 H   0  0  0  0  0  0  0  0  0  0  0  0
   -3.6379    1.4114  -23.0148 H   0  0  0  0  0  0  0  0  0  0  0  0
   -2.3662    2.3086  -21.0827 H   0  0  0  0  0  0  0  0  0  0  0  0
   -3.0867    1.7520  -18.7688 H   0  0  0  0  0  0  0  0  0  0  0  0
   -4.6384    0.6061  -17.2494 H   0  0  0  0  0  0  0  0  0  0  0  0
   -7.7629   -1.6835  -18.6215 H   0  0  0  0  0  0  0  0  0  0  0  0
   -8.6889   -1.3359  -21.4474 C   0  0  0  0  0  0  0  0  0  0  0  0
   -9.4375   -0.5246  -20.9586 O   0  0  0  0  0  0  0  0  0  0  0  0
  -10.6135   -3.6256  -22.3573 H   0  0  0  0  0  0  0  0  0  0  0  0
  -10.9399   -1.8714  -22.3456 H   0  0  0  0  0  0  0  0  0  0  0  0
  -10.4537   -2.6677  -23.8674 H   0  0  0  0  0  0  0  0  0  0  0  0
  1  2  1  0
  2  3  1  0
  3  4  1  0
  4  5  1  0
  5  6  2  0
  6  7  1  0
  7  8  2  0
  8  9  1  0
  9 10  2  0
 10 11  1  0
  9 12  1  0
  8 13  1  0
  7 14  1  0
  6 15  1  0
  4 16  1  0
  4 17  1  0
  3 18  2  0
 18 19  1  0
 19 20  1  0
 20 21  2  0
 21 22  1  0
 22 23  2  0
 23 24  1  0
 24 25  2  0
 25 26  1  0
 26 27  2  0
 27 28  1  0
 28 29  2  0
 28 30  1  0
 27 31  1  0
 26 32  1  0
 25 33  1  0
 23 34  1  0
 21 35  1  0
 19 36  1  0
 36 37  2  0
  1 38  1  0
  1 39  1  0
  1 40  1  0
 36  2  1  0
 10  5  1  0
 29 20  1  0
 29 24  1  0
M  END
>  <cnnaffinities>  (52) 
[4.95385, 4.95387, 5.57791, 5.57881, 5.34608, 5.34602, 5.39663, 5.39686]

>  <score>  (52) 
4.95385

>  <index>  (52) 
54

>  <Smiles>  (52) 
C(n1c(C(c2c(c(c(c(c2[H])[H])[H])[H])[H])([H])[H])nn(c2c(nc(c3c(c(c(c(c23)[H])[H])[H])[H])[H])[H])c1=O)([H])([H])[H]

>  <h>  (52) 
<NA>

>  <Training>  (52) 
True

>  <Success>  (52) 
True

>  <enamine_searched>  (52) 
False

>  <enamine_id>  (52) 
nan

$$$$

     RDKit          3D

 61 66  0  0  0  0  0  0  0  0999 V2000
  -11.6724   -4.3811  -23.0540 C   0  0  0  0  0  0  0  0  0  0  0  0
  -10.9181   -3.2353  -23.3452 O   0  0  0  0  0  0  0  0  0  0  0  0
  -10.2479   -2.7265  -22.2168 C   0  0  0  0  0  0  0  0  0  0  0  0
   -9.0957   -1.8458  -22.6809 C   0  0  1  0  0  0  0  0  0  0  0  0
   -8.6387   -0.9189  -21.5460 C   0  0  0  0  0  0  0  0  0  0  0  0
   -7.3357   -1.4113  -21.1883 N   0  0  0  0  0  0  0  0  0  0  0  0
   -6.5598   -0.8312  -20.1725 C   0  0  0  0  0  0  0  0  0  0  0  0
   -6.9006   -1.0446  -18.8664 C   0  0  0  0  0  0  0  0  0  0  0  0
   -6.2162   -0.5504  -17.8105 N   0  0  0  0  0  0  0  0  0  0  0  0
   -5.1795    0.2065  -18.0832 C   0  0  0  0  0  0  0  0  0  0  0  0
   -4.7345    0.5167  -19.4008 C   0  0  0  0  0  0  0  0  0  0  0  0
   -3.6136    1.3535  -19.6283 C   0  0  0  0  0  0  0  0  0  0  0  0
   -3.2252    1.6536  -20.9021 C   0  0  0  0  0  0  0  0  0  0  0  0
   -3.9396    1.1437  -22.0101 C   0  0  0  0  0  0  0  0  0  0  0  0
   -5.0316    0.3348  -21.8261 C   0  0  0  0  0  0  0  0  0  0  0  0
   -5.4442   -0.0076  -20.5006 C   0  0  0  0  0  0  0  0  0  0  0  0
   -5.5835   -0.0356  -22.6938 H   0  0  0  0  0  0  0  0  0  0  0  0
   -3.6194    1.4074  -23.0139 H   0  0  0  0  0  0  0  0  0  0  0  0
   -2.3752    2.3067  -21.0728 H   0  0  0  0  0  0  0  0  0  0  0  0
   -3.0929    1.7575  -18.7651 H   0  0  0  0  0  0  0  0  0  0  0  0
   -4.6316    0.6194  -17.2368 H   0  0  0  0  0  0  0  0  0  0  0  0
   -7.7600   -1.6750  -18.6414 H   0  0  0  0  0  0  0  0  0  0  0  0
   -6.8235   -2.3937  -21.9963 C   0  0  0  0  0  0  0  0  0  0  0  0
   -5.7833   -2.9814  -21.7761 O   0  0  0  0  0  0  0  0  0  0  0  0
   -7.8129   -2.6070  -23.1594 C   0  0  1  0  0  0  0  0  0  0  0  0
   -7.9703   -4.1258  -23.3543 C   0  0  0  0  0  0  0  0  0  0  0  0
   -6.7269   -4.6850  -23.8724 N   0  0  0  0  0  0  0  0  0  0  0  0
   -6.3543   -6.0301  -23.4489 C   0  0  0  0  0  0  0  0  0  0  0  0
   -7.2251   -7.0755  -24.0795 C   0  0  0  0  0  0  0  0  0  0  0  0
   -7.1546   -7.6042  -25.3207 C   0  0  0  0  0  0  0  0  0  0  0  0
   -8.3261   -8.2961  -25.5487 N   0  0  0  0  0  4  0  0  0  0  0  0
   -9.0935   -8.2070  -24.4513 C   0  0  0  0  0  0  0  0  0  0  0  0
   -8.4449   -7.4640  -23.5425 N   0  0  0  0  0  0  0  0  0  0  0  0
   -8.7948   -7.1787  -22.6322 H   0  0  0  0  0  0  0  0  0  0  0  0
  -10.0881   -8.5919  -24.3257 H   0  0  0  0  0  0  0  0  0  0  0  0
   -8.5034   -8.8257  -26.3995 H   0  0  0  0  0  0  0  0  0  0  0  0
   -6.4049   -7.4733  -26.0908 H   0  0  0  0  0  0  0  0  0  0  0  0
   -5.3134   -6.1875  -23.7392 H   0  0  0  0  0  0  0  0  0  0  0  0
   -6.4082   -6.0636  -22.3520 H   0  0  0  0  0  0  0  0  0  0  0  0
   -6.1961   -4.2164  -25.0475 C   0  0  0  0  0  0  0  0  0  0  0  0
   -5.4718   -4.8985  -25.7621 O   0  0  0  0  0  0  0  0  0  0  0  0
   -6.5363   -2.7952  -25.3611 C   0  0  0  0  0  0  0  0  0  0  0  0
   -6.0747   -2.2540  -26.5612 C   0  0  0  0  0  0  0  0  0  0  0  0
   -6.2805   -0.9245  -26.8673 C   0  0  0  0  0  0  0  0  0  0  0  0
   -6.9599   -0.1382  -25.9405 C   0  0  0  0  0  0  0  0  0  0  0  0
   -7.2272    1.5475  -26.2759 Cl  0  0  0  0  0  0  0  0  0  0  0  0
   -7.4482   -0.6667  -24.7586 C   0  0  0  0  0  0  0  0  0  0  0  0
   -7.2644   -2.0203  -24.4549 C   0  0  0  0  0  0  0  0  0  0  0  0
   -7.9888   -0.0067  -24.0890 H   0  0  0  0  0  0  0  0  0  0  0  0
   -5.9124   -0.4965  -27.7938 H   0  0  0  0  0  0  0  0  0  0  0  0
   -5.5423   -2.9080  -27.2394 H   0  0  0  0  0  0  0  0  0  0  0  0
   -8.1711   -4.5956  -22.3927 H   0  0  0  0  0  0  0  0  0  0  0  0
   -8.8254   -4.3342  -24.0143 H   0  0  0  0  0  0  0  0  0  0  0  0
   -8.6065    0.1434  -21.8317 H   0  0  0  0  0  0  0  0  0  0  0  0
   -9.3017   -0.9770  -20.6864 H   0  0  0  0  0  0  0  0  0  0  0  0
   -9.4949   -1.2633  -23.5120 H   0  0  0  0  0  0  0  0  0  0  0  0
   -9.8677   -3.5320  -21.5688 H   0  0  0  0  0  0  0  0  0  0  0  0
  -10.9524   -2.1386  -21.6134 H   0  0  0  0  0  0  0  0  0  0  0  0
  -11.0215   -5.2243  -22.7544 H   0  0  0  0  0  0  0  0  0  0  0  0
  -12.2247   -4.6654  -23.9549 H   0  0  0  0  0  0  0  0  0  0  0  0
  -12.4030   -4.1933  -22.2503 H   0  0  0  0  0  0  0  0  0  0  0  0
  1  2  1  0
  2  3  1  0
  3  4  1  0
  4  5  1  0
  5  6  1  0
  6  7  1  0
  7  8  2  0
  8  9  1  0
  9 10  2  0
 10 11  1  0
 11 12  2  0
 12 13  1  0
 13 14  2  0
 14 15  1  0
 15 16  2  0
 15 17  1  0
 14 18  1  0
 13 19  1  0
 12 20  1  0
 10 21  1  0
  8 22  1  0
  6 23  1  0
 23 24  2  0
 23 25  1  0
 25 26  1  6
 26 27  1  0
 27 28  1  0
 28 29  1  0
 29 30  2  0
 30 31  1  0
 31 32  2  0
 32 33  1  0
 33 34  1  0
 32 35  1  0
 31 36  1  0
 30 37  1  0
 28 38  1  0
 28 39  1  0
 27 40  1  0
 40 41  2  0
 40 42  1  0
 42 43  2  0
 43 44  1  0
 44 45  2  0
 45 46  1  0
 45 47  1  0
 47 48  2  0
 47 49  1  0
 44 50  1  0
 43 51  1  0
 26 52  1  0
 26 53  1  0
  5 54  1  0
  5 55  1  0
  4 56  1  6
  3 57  1  0
  3 58  1  0
  1 59  1  0
  1 60  1  0
  1 61  1  0
 25  4  1  0
 33 29  1  0
 48 42  1  0
 16  7  1  0
 48 25  1  0
 16 11  1  0
M  CHG  1  31   1
M  END
>  <cnnaffinities>  (53) 
[6.01422, 6.42393]

>  <score>  (53) 
6.01422

>  <index>  (53) 
55

>  <Smiles>  (53) 
C(OC([C@]1(C(N(c2c(nc(c3c(c(c(c(c23)[H])[H])[H])[H])[H])[H])C(=O)[C@]21C(N(C(c1c([n+](c(n1[H])[H])[H])[H])([H])[H])C(=O)c1c(c(c(Cl)c(c21)[H])[H])[H])([H])[H])([H])[H])[H])([H])[H])([H])([H])[H]

>  <h>  (53) 
<NA>

>  <Training>  (53) 
True

>  <Success>  (53) 
True

>  <enamine_searched>  (53) 
False

>  <enamine_id>  (53) 
nan

$$$$

     RDKit          3D

 57 62  0  0  0  0  0  0  0  0999 V2000
   -6.4667   -3.8860  -23.8551 C   0  0  0  0  0  0  0  0  0  0  0  0
   -6.8432   -3.1353  -22.5882 C   0  0  1  0  0  0  0  0  0  0  0  0
   -5.6503   -2.7146  -21.7284 C   0  0  0  0  0  0  0  0  0  0  0  0
   -6.2655   -1.7378  -20.8543 N   0  0  0  0  0  0  0  0  0  0  0  0
   -5.5946   -1.0704  -19.8108 C   0  0  0  0  0  0  0  0  0  0  0  0
   -5.8758   -1.3995  -18.5148 C   0  0  0  0  0  0  0  0  0  0  0  0
   -5.3933   -0.7322  -17.4438 N   0  0  0  0  0  0  0  0  0  0  0  0
   -4.6030    0.2884  -17.6852 C   0  0  0  0  0  0  0  0  0  0  0  0
   -4.1706    0.6805  -18.9861 C   0  0  0  0  0  0  0  0  0  0  0  0
   -3.2313    1.7248  -19.1981 C   0  0  0  0  0  0  0  0  0  0  0  0
   -2.8115    2.0487  -20.4590 C   0  0  0  0  0  0  0  0  0  0  0  0
   -3.3269    1.3548  -21.5761 C   0  0  0  0  0  0  0  0  0  0  0  0
   -4.2553    0.3582  -21.4025 C   0  0  0  0  0  0  0  0  0  0  0  0
   -4.6829   -0.0180  -20.0981 C   0  0  0  0  0  0  0  0  0  0  0  0
   -4.6670   -0.1280  -22.2798 H   0  0  0  0  0  0  0  0  0  0  0  0
   -3.0091    1.6195  -22.5818 H   0  0  0  0  0  0  0  0  0  0  0  0
   -2.0822    2.8386  -20.6158 H   0  0  0  0  0  0  0  0  0  0  0  0
   -2.8506    2.2494  -18.3287 H   0  0  0  0  0  0  0  0  0  0  0  0
   -4.2658    0.8578  -16.8209 H   0  0  0  0  0  0  0  0  0  0  0  0
   -6.5444   -2.2346  -18.3208 H   0  0  0  0  0  0  0  0  0  0  0  0
   -7.3682   -1.1206  -21.4176 C   0  0  0  0  0  0  0  0  0  0  0  0
   -7.9507   -0.1882  -20.9114 O   0  0  0  0  0  0  0  0  0  0  0  0
   -7.6655   -1.8181  -22.7657 C   0  0  1  0  0  0  0  0  0  0  0  0
   -7.1111   -0.9399  -23.9359 C   0  0  0  0  0  0  0  0  0  0  0  0
   -7.9862    0.1351  -24.3705 N   0  0  0  0  0  0  0  0  0  0  0  0
   -7.3859    1.3277  -24.9588 C   0  0  0  0  0  0  0  0  0  0  0  0
   -7.2205    2.4788  -23.9837 C   0  0  0  0  0  0  0  0  0  0  0  0
   -6.6700    2.1811  -22.7995 N   0  0  0  0  0  0  0  0  0  0  0  0
   -6.4838    3.2198  -21.9794 C   0  0  0  0  0  0  0  0  0  0  0  0
   -6.8770    4.5109  -22.2948 C   0  0  0  0  0  0  0  0  0  0  0  0
   -7.4409    4.6993  -23.5477 C   0  0  0  0  0  0  0  0  0  0  0  0
   -7.5794    3.6914  -24.4078 N   0  0  0  0  0  0  0  0  0  0  0  0
   -7.7754    5.6808  -23.8884 H   0  0  0  0  0  0  0  0  0  0  0  0
   -6.7149    5.3304  -21.6057 H   0  0  0  0  0  0  0  0  0  0  0  0
   -6.0004    3.0161  -21.0229 H   0  0  0  0  0  0  0  0  0  0  0  0
   -7.9880    1.6593  -25.8088 H   0  0  0  0  0  0  0  0  0  0  0  0
   -6.4011    1.0349  -25.3415 H   0  0  0  0  0  0  0  0  0  0  0  0
   -9.3327    0.1404  -24.1888 C   0  0  0  0  0  0  0  0  0  0  0  0
   -9.9943    1.1483  -24.3879 O   0  0  0  0  0  0  0  0  0  0  0  0
   -9.9192   -1.1420  -23.6917 C   0  0  0  0  0  0  0  0  0  0  0  0
  -11.2711   -1.3931  -23.9300 C   0  0  0  0  0  0  0  0  0  0  0  0
  -11.9175   -2.4040  -23.2539 C   0  0  0  0  0  0  0  0  0  0  0  0
  -11.1931   -3.1022  -22.2944 C   0  0  0  0  0  0  0  0  0  0  0  0
  -11.8686   -3.8793  -21.4423 F   0  0  0  0  0  0  0  0  0  0  0  0
   -9.8304   -2.9482  -22.1181 C   0  0  0  0  0  0  0  0  0  0  0  0
   -9.1535   -2.0171  -22.9134 C   0  0  0  0  0  0  0  0  0  0  0  0
   -9.3411   -3.5061  -21.3278 H   0  0  0  0  0  0  0  0  0  0  0  0
  -12.9769   -2.6108  -23.3754 H   0  0  0  0  0  0  0  0  0  0  0  0
  -11.8117   -0.6990  -24.5698 H   0  0  0  0  0  0  0  0  0  0  0  0
   -6.8782   -1.5686  -24.8013 H   0  0  0  0  0  0  0  0  0  0  0  0
   -6.1892   -0.4468  -23.6117 H   0  0  0  0  0  0  0  0  0  0  0  0
   -5.2232   -3.5454  -21.1611 H   0  0  0  0  0  0  0  0  0  0  0  0
   -4.8485   -2.2821  -22.3530 H   0  0  0  0  0  0  0  0  0  0  0  0
   -7.4493   -3.7997  -21.9592 H   0  0  0  0  0  0  0  0  0  0  0  0
   -5.6976   -3.3434  -24.4169 H   0  0  0  0  0  0  0  0  0  0  0  0
   -7.3402   -4.0164  -24.5054 H   0  0  0  0  0  0  0  0  0  0  0  0
   -6.0550   -4.8709  -23.6103 H   0  0  0  0  0  0  0  0  0  0  0  0
  1  2  1  0
  2  3  1  0
  3  4  1  0
  4  5  1  0
  5  6  2  0
  6  7  1  0
  7  8  2  0
  8  9  1  0
  9 10  2  0
 10 11  1  0
 11 12  2  0
 12 13  1  0
 13 14  2  0
 13 15  1  0
 12 16  1  0
 11 17  1  0
 10 18  1  0
  8 19  1  0
  6 20  1  0
  4 21  1  0
 21 22  2  0
 21 23  1  0
 23 24  1  6
 24 25  1  0
 25 26  1  0
 26 27  1  0
 27 28  2  0
 28 29  1  0
 29 30  2  0
 30 31  1  0
 31 32  2  0
 31 33  1  0
 30 34  1  0
 29 35  1  0
 26 36  1  0
 26 37  1  0
 25 38  1  0
 38 39  2  0
 38 40  1  0
 40 41  2  0
 41 42  1  0
 42 43  2  0
 43 44  1  0
 43 45  1  0
 45 46  2  0
 45 47  1  0
 42 48  1  0
 41 49  1  0
 24 50  1  0
 24 51  1  0
  3 52  1  0
  3 53  1  0
  2 54  1  1
  1 55  1  0
  1 56  1  0
  1 57  1  0
 23  2  1  0
 32 27  1  0
 46 40  1  0
 14  5  1  0
 46 23  1  0
 14  9  1  0
M  END
>  <cnnaffinities>  (54) 
[6.32819, 6.33737, 6.14537]

>  <score>  (54) 
6.32819

>  <index>  (54) 
56

>  <Smiles>  (54) 
C([C@]1(C(N(c2c(nc(c3c(c(c(c(c23)[H])[H])[H])[H])[H])[H])C(=O)[C@]21C(N(C(c1nc(c(c(n1)[H])[H])[H])([H])[H])C(=O)c1c(c(c(F)c(c21)[H])[H])[H])([H])[H])([H])[H])[H])([H])([H])[H]

>  <h>  (54) 
<NA>

>  <Training>  (54) 
True

>  <Success>  (54) 
True

>  <enamine_searched>  (54) 
False

>  <enamine_id>  (54) 
nan

$$$$

     RDKit          3D

 59 63  0  0  0  0  0  0  0  0999 V2000
   -2.6110   -4.6961  -22.8624 C   0  0  0  0  0  0  0  0  0  0  0  0
   -3.7630   -5.1756  -23.5970 N   0  0  0  0  0  0  0  0  0  0  0  0
   -4.8163   -5.6492  -22.8893 C   0  0  0  0  0  0  0  0  0  0  0  0
   -4.7723   -5.8008  -21.6807 O   0  0  0  0  0  0  0  0  0  0  0  0
   -6.0578   -5.9985  -23.7198 C   0  0  0  0  0  0  0  0  0  0  0  0
   -6.8133   -4.8349  -24.1465 N   0  0  0  0  0  0  0  0  0  0  0  0
   -7.9085   -4.3493  -23.3285 C   0  0  0  0  0  0  0  0  0  0  0  0
   -7.8831   -2.8113  -23.1224 C   0  0  2  0  0  0  0  0  0  0  0  0
   -6.7937   -2.4079  -22.0894 C   0  0  0  0  0  0  0  0  0  0  0  0
   -5.6500   -2.8122  -22.0395 O   0  0  0  0  0  0  0  0  0  0  0  0
   -7.3281   -1.4675  -21.2333 N   0  0  0  0  0  0  0  0  0  0  0  0
   -6.5702   -0.8584  -20.1951 C   0  0  0  0  0  0  0  0  0  0  0  0
   -6.8954   -1.0586  -18.8760 C   0  0  0  0  0  0  0  0  0  0  0  0
   -6.2072   -0.5507  -17.8235 N   0  0  0  0  0  0  0  0  0  0  0  0
   -5.1723    0.2101  -18.0853 C   0  0  0  0  0  0  0  0  0  0  0  0
   -4.7351    0.5252  -19.4031 C   0  0  0  0  0  0  0  0  0  0  0  0
   -3.6091    1.3622  -19.6338 C   0  0  0  0  0  0  0  0  0  0  0  0
   -3.2217    1.6621  -20.9097 C   0  0  0  0  0  0  0  0  0  0  0  0
   -3.9484    1.1506  -22.0093 C   0  0  0  0  0  0  0  0  0  0  0  0
   -5.0419    0.3463  -21.8159 C   0  0  0  0  0  0  0  0  0  0  0  0
   -5.4547   -0.0079  -20.4980 C   0  0  0  0  0  0  0  0  0  0  0  0
   -5.5962   -0.0328  -22.6734 H   0  0  0  0  0  0  0  0  0  0  0  0
   -3.6306    1.3967  -23.0179 H   0  0  0  0  0  0  0  0  0  0  0  0
   -2.3642    2.3041  -21.0889 H   0  0  0  0  0  0  0  0  0  0  0  0
   -3.0757    1.7617  -18.7737 H   0  0  0  0  0  0  0  0  0  0  0  0
   -4.6234    0.6155  -17.2333 H   0  0  0  0  0  0  0  0  0  0  0  0
   -7.7464   -1.6819  -18.6059 H   0  0  0  0  0  0  0  0  0  0  0  0
   -8.7283   -1.1820  -21.4843 C   0  0  0  0  0  0  0  0  0  0  0  0
   -9.2159   -2.2859  -22.4545 C   0  0  0  0  0  0  0  0  0  0  0  0
  -10.3084   -1.7847  -23.4107 C   0  0  0  0  0  0  0  0  0  0  0  0
  -10.0700   -0.8402  -23.9056 H   0  0  0  0  0  0  0  0  0  0  0  0
  -10.5185   -2.5422  -24.1749 H   0  0  0  0  0  0  0  0  0  0  0  0
  -11.2309   -1.6365  -22.8374 H   0  0  0  0  0  0  0  0  0  0  0  0
   -9.9039   -3.3639  -21.6020 C   0  0  0  0  0  0  0  0  0  0  0  0
  -10.7779   -2.8888  -21.1548 H   0  0  0  0  0  0  0  0  0  0  0  0
  -10.2570   -4.2175  -22.1860 H   0  0  0  0  0  0  0  0  0  0  0  0
   -9.2444   -3.7221  -20.8165 H   0  0  0  0  0  0  0  0  0  0  0  0
   -8.8725   -0.1666  -21.8788 H   0  0  0  0  0  0  0  0  0  0  0  0
   -9.2797   -1.2425  -20.5564 H   0  0  0  0  0  0  0  0  0  0  0  0
   -7.5107   -2.1354  -24.4392 C   0  0  0  0  0  0  0  0  0  0  0  0
   -7.6015   -0.7396  -24.5484 C   0  0  0  0  0  0  0  0  0  0  0  0
   -7.3046   -0.1131  -25.7451 C   0  0  0  0  0  0  0  0  0  0  0  0
   -7.4621    1.6150  -25.8793 Cl  0  0  0  0  0  0  0  0  0  0  0  0
   -6.8624   -0.8422  -26.8470 C   0  0  0  0  0  0  0  0  0  0  0  0
   -6.6829   -2.2031  -26.7158 C   0  0  0  0  0  0  0  0  0  0  0  0
   -6.9698   -2.8461  -25.5150 C   0  0  0  0  0  0  0  0  0  0  0  0
   -6.5344   -4.2710  -25.3588 C   0  0  0  0  0  0  0  0  0  0  0  0
   -5.8850   -4.8578  -26.2203 O   0  0  0  0  0  0  0  0  0  0  0  0
   -6.2802   -2.8140  -27.5158 H   0  0  0  0  0  0  0  0  0  0  0  0
   -6.6284   -0.3336  -27.7728 H   0  0  0  0  0  0  0  0  0  0  0  0
   -7.9133   -0.1204  -23.7108 H   0  0  0  0  0  0  0  0  0  0  0  0
   -8.8750   -4.6199  -23.7847 H   0  0  0  0  0  0  0  0  0  0  0  0
   -7.8164   -4.8389  -22.3586 H   0  0  0  0  0  0  0  0  0  0  0  0
   -6.6794   -6.6273  -23.0796 H   0  0  0  0  0  0  0  0  0  0  0  0
   -5.7868   -6.5391  -24.6305 H   0  0  0  0  0  0  0  0  0  0  0  0
   -3.8325   -5.0625  -24.5998 H   0  0  0  0  0  0  0  0  0  0  0  0
   -1.9023   -4.2671  -23.5742 H   0  0  0  0  0  0  0  0  0  0  0  0
   -2.1238   -5.5080  -22.3064 H   0  0  0  0  0  0  0  0  0  0  0  0
   -2.9506   -3.9466  -22.1365 H   0  0  0  0  0  0  0  0  0  0  0  0
  1  2  1  0
  2  3  1  0
  3  4  2  0
  3  5  1  0
  5  6  1  0
  6  7  1  0
  8  7  1  6
  8  9  1  0
  9 10  2  0
  9 11  1  0
 11 12  1  0
 12 13  2  0
 13 14  1  0
 14 15  2  0
 15 16  1  0
 16 17  2  0
 17 18  1  0
 18 19  2  0
 19 20  1  0
 20 21  2  0
 20 22  1  0
 19 23  1  0
 18 24  1  0
 17 25  1  0
 15 26  1  0
 13 27  1  0
 11 28  1  0
 28 29  1  0
 29 30  1  0
 30 31  1  0
 30 32  1  0
 30 33  1  0
 29 34  1  0
 34 35  1  0
 34 36  1  0
 34 37  1  0
 28 38  1  0
 28 39  1  0
  8 40  1  0
 40 41  2  0
 41 42  1  0
 42 43  1  0
 42 44  2  0
 44 45  1  0
 45 46  2  0
 46 47  1  0
 47 48  2  0
 45 49  1  0
 44 50  1  0
 41 51  1  0
  7 52  1  0
  7 53  1  0
  5 54  1  0
  5 55  1  0
  2 56  1  0
  1 57  1  0
  1 58  1  0
  1 59  1  0
 47  6  1  0
 29  8  1  0
 46 40  1  0
 21 12  1  0
 21 16  1  0
M  END
>  <cnnaffinities>  (55) 
[6.16128, 6.16406]

>  <score>  (55) 
6.16128

>  <index>  (55) 
57

>  <Smiles>  (55) 
C(N(C(=O)C(N1C([C@@]2(C(=O)N(c3c(nc(c4c(c(c(c(c34)[H])[H])[H])[H])[H])[H])C(C2(C([H])([H])[H])C([H])([H])[H])([H])[H])c2c(c(Cl)c(c(c2C1=O)[H])[H])[H])([H])[H])([H])[H])[H])([H])([H])[H]

>  <h>  (55) 
<NA>

>  <Training>  (55) 
True

>  <Success>  (55) 
True

>  <enamine_searched>  (55) 
False

>  <enamine_id>  (55) 
nan

$$$$

     RDKit          3D

 42 45  0  0  0  0  0  0  0  0999 V2000
   -7.2908   -5.4914  -21.7427 C   0  0  0  0  0  0  0  0  0  0  0  0
   -7.9091   -4.3913  -22.4712 N   0  0  0  0  0  0  0  0  0  0  0  0
   -9.1644   -3.8143  -22.0055 C   0  0  0  0  0  0  0  0  0  0  0  0
   -9.3209   -2.3241  -22.3532 C   0  0  1  0  0  0  0  0  0  0  0  0
   -8.5827   -1.3805  -21.4026 C   0  0  0  0  0  0  0  0  0  0  0  0
   -9.1459   -0.4663  -20.8309 O   0  0  0  0  0  0  0  0  0  0  0  0
   -7.2366   -1.5899  -21.2532 N   0  0  0  0  0  0  0  0  0  0  0  0
   -6.5378   -0.9319  -20.2196 C   0  0  0  0  0  0  0  0  0  0  0  0
   -6.9276   -1.0928  -18.9165 C   0  0  0  0  0  0  0  0  0  0  0  0
   -6.2659   -0.5801  -17.8542 N   0  0  0  0  0  0  0  0  0  0  0  0
   -5.2181    0.1662  -18.1058 C   0  0  0  0  0  0  0  0  0  0  0  0
   -4.7411    0.4633  -19.4139 C   0  0  0  0  0  0  0  0  0  0  0  0
   -3.6265    1.3132  -19.6395 C   0  0  0  0  0  0  0  0  0  0  0  0
   -3.2374    1.6080  -20.9178 C   0  0  0  0  0  0  0  0  0  0  0  0
   -3.9410    1.0805  -22.0257 C   0  0  0  0  0  0  0  0  0  0  0  0
   -5.0219    0.2526  -21.8351 C   0  0  0  0  0  0  0  0  0  0  0  0
   -5.4279   -0.0884  -20.5178 C   0  0  0  0  0  0  0  0  0  0  0  0
   -5.5905   -0.1265  -22.6812 H   0  0  0  0  0  0  0  0  0  0  0  0
   -3.6278    1.3436  -23.0336 H   0  0  0  0  0  0  0  0  0  0  0  0
   -2.3910    2.2689  -21.0924 H   0  0  0  0  0  0  0  0  0  0  0  0
   -3.1177    1.7357  -18.7764 H   0  0  0  0  0  0  0  0  0  0  0  0
   -4.6920    0.5836  -17.2471 H   0  0  0  0  0  0  0  0  0  0  0  0
   -7.8150   -1.6792  -18.6878 H   0  0  0  0  0  0  0  0  0  0  0  0
   -6.7707   -2.3340  -21.7526 H   0  0  0  0  0  0  0  0  0  0  0  0
   -8.8770   -2.0467  -23.7582 C   0  0  0  0  0  0  0  0  0  0  0  0
   -9.1888   -0.8173  -24.3523 C   0  0  0  0  0  0  0  0  0  0  0  0
   -8.6453   -0.5281  -25.5941 C   0  0  0  0  0  0  0  0  0  0  0  0
   -8.8330    1.0624  -26.2580 Cl  0  0  0  0  0  0  0  0  0  0  0  0
   -7.8804   -1.4508  -26.3084 C   0  0  0  0  0  0  0  0  0  0  0  0
   -7.6110   -2.6728  -25.7254 C   0  0  0  0  0  0  0  0  0  0  0  0
   -8.0344   -2.9340  -24.4216 C   0  0  0  0  0  0  0  0  0  0  0  0
   -7.4385   -4.1282  -23.7322 C   0  0  0  0  0  0  0  0  0  0  0  0
   -6.5460   -4.7742  -24.2560 O   0  0  0  0  0  0  0  0  0  0  0  0
   -7.0677   -3.4505  -26.2487 H   0  0  0  0  0  0  0  0  0  0  0  0
   -7.4587   -1.1817  -27.2744 H   0  0  0  0  0  0  0  0  0  0  0  0
   -9.8147   -0.0685  -23.8658 H   0  0  0  0  0  0  0  0  0  0  0  0
  -10.3690   -2.0490  -22.2014 H   0  0  0  0  0  0  0  0  0  0  0  0
  -10.0247   -4.3714  -22.4060 H   0  0  0  0  0  0  0  0  0  0  0  0
   -9.2066   -3.9031  -20.9243 H   0  0  0  0  0  0  0  0  0  0  0  0
   -8.0482   -6.1905  -21.3768 H   0  0  0  0  0  0  0  0  0  0  0  0
   -6.6359   -6.0141  -22.4421 H   0  0  0  0  0  0  0  0  0  0  0  0
   -6.6798   -5.1486  -20.8978 H   0  0  0  0  0  0  0  0  0  0  0  0
  1  2  1  0
  2  3  1  0
  3  4  1  0
  4  5  1  0
  5  6  2  0
  5  7  1  0
  7  8  1  0
  8  9  2  0
  9 10  1  0
 10 11  2  0
 11 12  1  0
 12 13  2  0
 13 14  1  0
 14 15  2  0
 15 16  1  0
 16 17  2  0
 16 18  1  0
 15 19  1  0
 14 20  1  0
 13 21  1  0
 11 22  1  0
  9 23  1  0
  7 24  1  0
  4 25  1  0
 25 26  2  0
 26 27  1  0
 27 28  1  0
 27 29  2  0
 29 30  1  0
 30 31  2  0
 31 32  1  0
 32 33  2  0
 30 34  1  0
 29 35  1  0
 26 36  1  0
  4 37  1  6
  3 38  1  0
  3 39  1  0
  1 40  1  0
  1 41  1  0
  1 42  1  0
 32  2  1  0
 17  8  1  0
 31 25  1  0
 17 12  1  0
M  END
>  <cnnaffinities>  (56) 
[5.18875, 5.36285, 4.98109]

>  <score>  (56) 
5.18875

>  <index>  (56) 
58

>  <Smiles>  (56) 
C(N1C([C@@](C(=O)N(c2c(nc(c3c(c(c(c(c23)[H])[H])[H])[H])[H])[H])[H])(c2c(c(Cl)c(c(c2C1=O)[H])[H])[H])[H])([H])[H])([H])([H])[H]

>  <h>  (56) 
<NA>

>  <Training>  (56) 
True

>  <Success>  (56) 
True

>  <enamine_searched>  (56) 
False

>  <enamine_id>  (56) 
nan

$$$$

     RDKit          3D

 60 65  0  0  0  0  0  0  0  0999 V2000
   -6.7825    2.2380  -22.0147 C   0  0  0  0  0  0  0  0  0  0  0  0
   -7.2687    1.3230  -23.0326 N   0  0  0  0  0  0  0  0  0  0  0  0
   -6.5736    1.0882  -24.1693 C   0  0  0  0  0  0  0  0  0  0  0  0
   -5.5138    1.6422  -24.4524 O   0  0  0  0  0  0  0  0  0  0  0  0
   -7.1913    0.0778  -25.1518 C   0  0  0  0  0  0  0  0  0  0  0  0
   -8.0029   -0.9419  -24.5082 N   0  0  0  0  0  0  0  0  0  0  0  0
   -7.3805   -2.0602  -23.8155 C   0  0  0  0  0  0  0  0  0  0  0  0
   -8.1214   -2.4875  -22.5144 C   0  0  2  0  0  0  0  0  0  0  0  0
   -7.6412   -1.5532  -21.3670 C   0  0  0  0  0  0  0  0  0  0  0  0
   -8.0909   -0.4646  -21.0506 O   0  0  0  0  0  0  0  0  0  0  0  0
   -6.5427   -2.1222  -20.7779 N   0  0  0  0  0  0  0  0  0  0  0  0
   -5.8371   -1.4865  -19.7255 C   0  0  0  0  0  0  0  0  0  0  0  0
   -6.0710   -1.8341  -18.4221 C   0  0  0  0  0  0  0  0  0  0  0  0
   -5.5417   -1.1882  -17.3577 N   0  0  0  0  0  0  0  0  0  0  0  0
   -4.7291   -0.1842  -17.5961 C   0  0  0  0  0  0  0  0  0  0  0  0
   -4.3531    0.2408  -18.9008 C   0  0  0  0  0  0  0  0  0  0  0  0
   -3.4656    1.3296  -19.1280 C   0  0  0  0  0  0  0  0  0  0  0  0
   -3.1608    1.7208  -20.4031 C   0  0  0  0  0  0  0  0  0  0  0  0
   -3.6961    1.0302  -21.5125 C   0  0  0  0  0  0  0  0  0  0  0  0
   -4.5298   -0.0452  -21.3156 C   0  0  0  0  0  0  0  0  0  0  0  0
   -4.9033   -0.4457  -20.0059 C   0  0  0  0  0  0  0  0  0  0  0  0
   -4.9319   -0.5899  -22.1627 H   0  0  0  0  0  0  0  0  0  0  0  0
   -3.4984    1.3692  -22.5242 H   0  0  0  0  0  0  0  0  0  0  0  0
   -2.5022    2.5686  -20.5711 H   0  0  0  0  0  0  0  0  0  0  0  0
   -3.0574    1.8532  -18.2681 H   0  0  0  0  0  0  0  0  0  0  0  0
   -4.3281    0.3539  -16.7384 H   0  0  0  0  0  0  0  0  0  0  0  0
   -6.7588   -2.6496  -18.1910 H   0  0  0  0  0  0  0  0  0  0  0  0
   -6.2891   -3.4739  -21.2001 C   0  0  0  0  0  0  0  0  0  0  0  0
   -7.5675   -3.8469  -21.9773 C   0  0  2  0  0  0  0  0  0  0  0  0
   -7.3462   -5.0344  -22.9371 C   0  0  0  0  0  0  0  0  0  0  0  0
   -6.4551   -6.0410  -22.2502 C   0  0  0  0  0  0  0  0  0  0  0  0
   -6.8350   -6.8146  -21.2407 N   0  0  0  0  0  0  0  0  0  0  0  0
   -5.7135   -7.4047  -20.8215 N   0  0  0  0  0  0  0  0  0  0  0  0
   -4.7118   -7.0042  -21.5536 N   0  0  0  0  0  2  0  0  0  0  0  0
   -5.1508   -6.1435  -22.4736 N   0  0  0  0  0  0  0  0  0  0  0  0
   -6.8454   -4.7346  -23.8585 H   0  0  0  0  0  0  0  0  0  0  0  0
   -8.2966   -5.5041  -23.2063 H   0  0  0  0  0  0  0  0  0  0  0  0
   -8.2885   -4.2086  -21.2487 H   0  0  0  0  0  0  0  0  0  0  0  0
   -5.4090   -3.5440  -21.8571 H   0  0  0  0  0  0  0  0  0  0  0  0
   -6.1008   -4.1066  -20.3252 H   0  0  0  0  0  0  0  0  0  0  0  0
   -9.6198   -2.4131  -22.7110 C   0  0  0  0  0  0  0  0  0  0  0  0
  -10.5085   -2.9625  -21.7721 C   0  0  0  0  0  0  0  0  0  0  0  0
  -11.8753   -2.7607  -21.8968 C   0  0  0  0  0  0  0  0  0  0  0  0
  -13.0202   -3.2722  -20.6856 Cl  0  0  0  0  0  0  0  0  0  0  0  0
  -12.4064   -2.0656  -22.9747 C   0  0  0  0  0  0  0  0  0  0  0  0
  -11.5416   -1.5185  -23.8921 C   0  0  0  0  0  0  0  0  0  0  0  0
  -10.1733   -1.6648  -23.7538 C   0  0  0  0  0  0  0  0  0  0  0  0
   -9.3493   -0.9239  -24.7486 C   0  0  0  0  0  0  0  0  0  0  0  0
   -9.8515   -0.2834  -25.6600 O   0  0  0  0  0  0  0  0  0  0  0  0
  -11.8627   -0.8952  -24.7176 H   0  0  0  0  0  0  0  0  0  0  0  0
  -13.4758   -1.9147  -23.0418 H   0  0  0  0  0  0  0  0  0  0  0  0
  -10.1330   -3.5361  -20.9359 H   0  0  0  0  0  0  0  0  0  0  0  0
   -7.3118   -2.9162  -24.4978 H   0  0  0  0  0  0  0  0  0  0  0  0
   -6.3640   -1.7632  -23.5493 H   0  0  0  0  0  0  0  0  0  0  0  0
   -6.3825   -0.3424  -25.7630 H   0  0  0  0  0  0  0  0  0  0  0  0
   -7.8720    0.6031  -25.8361 H   0  0  0  0  0  0  0  0  0  0  0  0
   -7.9618    0.6536  -22.7155 H   0  0  0  0  0  0  0  0  0  0  0  0
   -7.4754    3.0738  -21.8557 H   0  0  0  0  0  0  0  0  0  0  0  0
   -5.8153    2.6317  -22.3414 H   0  0  0  0  0  0  0  0  0  0  0  0
   -6.6485    1.7024  -21.0656 H   0  0  0  0  0  0  0  0  0  0  0  0
  1  2  1  0
  2  3  1  0
  3  4  2  0
  3  5  1  0
  5  6  1  0
  6  7  1  0
  8  7  1  6
  8  9  1  0
  9 10  2  0
  9 11  1  0
 11 12  1  0
 12 13  2  0
 13 14  1  0
 14 15  2  0
 15 16  1  0
 16 17  2  0
 17 18  1  0
 18 19  2  0
 19 20  1  0
 20 21  2  0
 20 22  1  0
 19 23  1  0
 18 24  1  0
 17 25  1  0
 15 26  1  0
 13 27  1  0
 11 28  1  0
 28 29  1  0
 29 30  1  0
 30 31  1  0
 31 32  1  0
 32 33  2  0
 33 34  1  0
 34 35  1  0
 30 36  1  0
 30 37  1  0
 29 38  1  1
 28 39  1  0
 28 40  1  0
  8 41  1  0
 41 42  2  0
 42 43  1  0
 43 44  1  0
 43 45  2  0
 45 46  1  0
 46 47  2  0
 47 48  1  0
 48 49  2  0
 46 50  1  0
 45 51  1  0
 42 52  1  0
  7 53  1  0
  7 54  1  0
  5 55  1  0
  5 56  1  0
  2 57  1  0
  1 58  1  0
  1 59  1  0
  1 60  1  0
 48  6  1  0
 29  8  1  0
 35 31  2  0
 47 41  1  0
 21 12  1  0
 21 16  1  0
M  CHG  1  34  -1
M  END
>  <cnnaffinities>  (57) 
[6.74666]

>  <score>  (57) 
6.74666

>  <index>  (57) 
59

>  <Smiles>  (57) 
C(N(C(=O)C(N1C([C@@]2(C(=O)N(c3c(nc(c4c(c(c(c(c34)[H])[H])[H])[H])[H])[H])C([C@@]2(C(c2nn[n-]n2)([H])[H])[H])([H])[H])c2c(c(Cl)c(c(c2C1=O)[H])[H])[H])([H])[H])([H])[H])[H])([H])([H])[H]

>  <h>  (57) 
<NA>

>  <Training>  (57) 
True

>  <Success>  (57) 
True

>  <enamine_searched>  (57) 
False

>  <enamine_id>  (57) 
nan

$$$$

     RDKit          3D

 62 67  0  0  0  0  0  0  0  0999 V2000
   -8.1827   -6.7892  -26.7164 C   0  0  0  0  0  0  0  0  0  0  0  0
   -7.0988   -7.3056  -25.7807 C   0  0  0  0  0  0  0  0  0  0  0  0
   -7.6122   -7.4743  -24.4284 N   0  0  0  0  0  0  0  0  0  0  0  0
   -8.6606   -8.2885  -24.2673 N   0  0  0  0  0  0  0  0  0  0  0  0
   -8.8457   -8.3518  -22.9623 C   0  0  0  0  0  0  0  0  0  0  0  0
   -7.8933   -7.5906  -22.2524 C   0  0  0  0  0  0  0  0  0  0  0  0
   -7.1266   -7.0110  -23.2487 C   0  0  0  0  0  0  0  0  0  0  0  0
   -6.1468   -5.8849  -23.2882 C   0  0  0  0  0  0  0  0  0  0  0  0
   -6.7305   -4.7313  -23.9759 N   0  0  0  0  0  0  0  0  0  0  0  0
   -7.9526   -4.1754  -23.4109 C   0  0  0  0  0  0  0  0  0  0  0  0
   -7.8179   -2.6621  -23.1741 C   0  0  2  0  0  0  0  0  0  0  0  0
   -6.8365   -2.4317  -22.0066 C   0  0  0  0  0  0  0  0  0  0  0  0
   -5.7807   -2.9860  -21.7885 O   0  0  0  0  0  0  0  0  0  0  0  0
   -7.3613   -1.4537  -21.2049 N   0  0  0  0  0  0  0  0  0  0  0  0
   -6.5831   -0.8584  -20.1929 C   0  0  0  0  0  0  0  0  0  0  0  0
   -6.9280   -1.0615  -18.8838 C   0  0  0  0  0  0  0  0  0  0  0  0
   -6.2467   -0.5596  -17.8299 N   0  0  0  0  0  0  0  0  0  0  0  0
   -5.2060    0.1929  -18.0969 C   0  0  0  0  0  0  0  0  0  0  0  0
   -4.7565    0.5000  -19.4132 C   0  0  0  0  0  0  0  0  0  0  0  0
   -3.6314    1.3354  -19.6316 C   0  0  0  0  0  0  0  0  0  0  0  0
   -3.2367    1.6456  -20.9024 C   0  0  0  0  0  0  0  0  0  0  0  0
   -3.9472    1.1319  -22.0139 C   0  0  0  0  0  0  0  0  0  0  0  0
   -5.0369    0.3142  -21.8347 C   0  0  0  0  0  0  0  0  0  0  0  0
   -5.4615   -0.0323  -20.5145 C   0  0  0  0  0  0  0  0  0  0  0  0
   -5.5754   -0.0710  -22.7039 H   0  0  0  0  0  0  0  0  0  0  0  0
   -3.6249    1.3956  -23.0174 H   0  0  0  0  0  0  0  0  0  0  0  0
   -2.3843    2.2994  -21.0687 H   0  0  0  0  0  0  0  0  0  0  0  0
   -3.1155    1.7357  -18.7630 H   0  0  0  0  0  0  0  0  0  0  0  0
   -4.6572    0.5993  -17.2477 H   0  0  0  0  0  0  0  0  0  0  0  0
   -7.7905   -1.6840  -18.6469 H   0  0  0  0  0  0  0  0  0  0  0  0
   -8.6661   -0.9794  -21.5960 C   0  0  0  0  0  0  0  0  0  0  0  0
   -9.1320   -1.9918  -22.6604 C   0  0  2  0  0  0  0  0  0  0  0  0
  -10.1842   -2.9451  -22.0741 C   0  0  0  0  0  0  0  0  0  0  0  0
   -9.7954   -3.5252  -21.2303 H   0  0  0  0  0  0  0  0  0  0  0  0
  -10.5462   -3.6503  -22.8270 H   0  0  0  0  0  0  0  0  0  0  0  0
  -11.0514   -2.3798  -21.7140 H   0  0  0  0  0  0  0  0  0  0  0  0
   -9.6198   -1.4729  -23.4914 H   0  0  0  0  0  0  0  0  0  0  0  0
   -8.6183    0.0505  -21.9749 H   0  0  0  0  0  0  0  0  0  0  0  0
   -9.3360   -0.9631  -20.7384 H   0  0  0  0  0  0  0  0  0  0  0  0
   -7.2929   -2.0187  -24.4582 C   0  0  0  0  0  0  0  0  0  0  0  0
   -7.5287   -0.6685  -24.7582 C   0  0  0  0  0  0  0  0  0  0  0  0
   -7.0532   -0.1356  -25.9425 C   0  0  0  0  0  0  0  0  0  0  0  0
   -7.3046    1.1577  -26.2200 F   0  0  0  0  0  0  0  0  0  0  0  0
   -6.3363   -0.8893  -26.8635 C   0  0  0  0  0  0  0  0  0  0  0  0
   -6.0767   -2.2103  -26.5624 C   0  0  0  0  0  0  0  0  0  0  0  0
   -6.5258   -2.7646  -25.3643 C   0  0  0  0  0  0  0  0  0  0  0  0
   -6.1143   -4.1708  -25.0551 C   0  0  0  0  0  0  0  0  0  0  0  0
   -5.2618   -4.7497  -25.7207 O   0  0  0  0  0  0  0  0  0  0  0  0
   -5.5144   -2.8413  -27.2426 H   0  0  0  0  0  0  0  0  0  0  0  0
   -5.9904   -0.4278  -27.7799 H   0  0  0  0  0  0  0  0  0  0  0  0
   -8.0976   -0.0147  -24.1054 H   0  0  0  0  0  0  0  0  0  0  0  0
   -8.7981   -4.3663  -24.0880 H   0  0  0  0  0  0  0  0  0  0  0  0
   -8.1412   -4.6728  -22.4587 H   0  0  0  0  0  0  0  0  0  0  0  0
   -5.2512   -6.1700  -23.8520 H   0  0  0  0  0  0  0  0  0  0  0  0
   -5.8655   -5.6007  -22.2641 H   0  0  0  0  0  0  0  0  0  0  0  0
   -7.8517   -7.4044  -21.1844 H   0  0  0  0  0  0  0  0  0  0  0  0
   -9.6987   -8.9109  -22.6020 H   0  0  0  0  0  0  0  0  0  0  0  0
   -6.2395   -6.6328  -25.7638 H   0  0  0  0  0  0  0  0  0  0  0  0
   -6.7256   -8.2803  -26.1113 H   0  0  0  0  0  0  0  0  0  0  0  0
   -7.8052   -6.7710  -27.7395 H   0  0  0  0  0  0  0  0  0  0  0  0
   -9.0579   -7.4423  -26.6884 H   0  0  0  0  0  0  0  0  0  0  0  0
   -8.5203   -5.7784  -26.4654 H   0  0  0  0  0  0  0  0  0  0  0  0
  1  2  1  0
  2  3  1  0
  3  4  1  0
  4  5  2  0
  5  6  1  0
  6  7  2  0
  7  8  1  0
  8  9  1  0
  9 10  1  0
 11 10  1  6
 11 12  1  0
 12 13  2  0
 12 14  1  0
 14 15  1  0
 15 16  2  0
 16 17  1  0
 17 18  2  0
 18 19  1  0
 19 20  2  0
 20 21  1  0
 21 22  2  0
 22 23  1  0
 23 24  2  0
 23 25  1  0
 22 26  1  0
 21 27  1  0
 20 28  1  0
 18 29  1  0
 16 30  1  0
 14 31  1  0
 31 32  1  0
 32 33  1  0
 33 34  1  0
 33 35  1  0
 33 36  1  0
 32 37  1  6
 31 38  1  0
 31 39  1  0
 11 40  1  0
 40 41  2  0
 41 42  1  0
 42 43  1  0
 42 44  2  0
 44 45  1  0
 45 46  2  0
 46 47  1  0
 47 48  2  0
 45 49  1  0
 44 50  1  0
 41 51  1  0
 10 52  1  0
 10 53  1  0
  8 54  1  0
  8 55  1  0
  6 56  1  0
  5 57  1  0
  2 58  1  0
  2 59  1  0
  1 60  1  0
  1 61  1  0
  1 62  1  0
  7  3  1  0
 47  9  1  0
 32 11  1  0
 46 40  1  0
 24 15  1  0
 24 19  1  0
M  END
>  <cnnaffinities>  (58) 
[6.46951]

>  <score>  (58) 
6.46951

>  <index>  (58) 
60

>  <Smiles>  (58) 
C(C(n1nc(c(c1C(N1C([C@@]2(C(=O)N(c3c(nc(c4c(c(c(c(c34)[H])[H])[H])[H])[H])[H])C([C@@]2(C([H])([H])[H])[H])([H])[H])c2c(c(F)c(c(c2C1=O)[H])[H])[H])([H])[H])([H])[H])[H])[H])([H])[H])([H])([H])[H]

>  <h>  (58) 
<NA>

>  <Training>  (58) 
True

>  <Success>  (58) 
True

>  <enamine_searched>  (58) 
False

>  <enamine_id>  (58) 
nan

$$$$

     RDKit          3D

 44 47  0  0  0  0  0  0  0  0999 V2000
   -5.8675   -3.3087  -21.2779 O   0  0  0  0  0  0  0  0  0  0  0  0
   -6.6930   -2.6844  -21.9254 C   0  0  0  0  0  0  0  0  0  0  0  0
   -7.3962   -1.4607  -21.2856 C   0  0  0  0  0  0  0  0  0  0  0  0
   -6.5779   -0.8278  -20.1841 C   0  0  0  0  0  0  0  0  0  0  0  0
   -6.8720   -1.0469  -18.8606 C   0  0  0  0  0  0  0  0  0  0  0  0
   -6.1851   -0.5491  -17.7978 N   0  0  0  0  0  0  0  0  0  0  0  0
   -5.1579    0.2232  -18.0616 C   0  0  0  0  0  0  0  0  0  0  0  0
   -4.7214    0.5336  -19.3805 C   0  0  0  0  0  0  0  0  0  0  0  0
   -3.5922    1.3607  -19.6204 C   0  0  0  0  0  0  0  0  0  0  0  0
   -3.1928    1.6380  -20.9018 C   0  0  0  0  0  0  0  0  0  0  0  0
   -3.9065    1.0968  -21.9934 C   0  0  0  0  0  0  0  0  0  0  0  0
   -5.0036    0.2964  -21.7857 C   0  0  0  0  0  0  0  0  0  0  0  0
   -5.4452   -0.0066  -20.4700 C   0  0  0  0  0  0  0  0  0  0  0  0
   -5.5361   -0.1089  -22.6400 H   0  0  0  0  0  0  0  0  0  0  0  0
   -3.5839    1.3205  -23.0052 H   0  0  0  0  0  0  0  0  0  0  0  0
   -2.3328    2.2743  -21.0898 H   0  0  0  0  0  0  0  0  0  0  0  0
   -3.0529    1.7748  -18.7723 H   0  0  0  0  0  0  0  0  0  0  0  0
   -4.6016    0.6287  -17.2151 H   0  0  0  0  0  0  0  0  0  0  0  0
   -7.7210   -1.6710  -18.5893 H   0  0  0  0  0  0  0  0  0  0  0  0
   -7.6867   -0.7004  -22.0209 H   0  0  0  0  0  0  0  0  0  0  0  0
   -8.3349   -1.8262  -20.8463 H   0  0  0  0  0  0  0  0  0  0  0  0
   -7.0441   -3.0684  -23.1941 N   0  0  0  0  0  0  0  0  0  0  0  0
   -7.7403   -2.2003  -24.1414 C   0  0  0  0  0  0  0  0  0  0  0  0
   -7.7257   -2.7793  -25.5531 C   0  0  0  0  0  0  0  0  0  0  0  0
   -8.2699   -4.2063  -25.6406 C   0  0  0  0  0  0  0  0  0  0  0  0
   -8.0278   -4.8597  -27.0292 C   0  0  0  0  0  0  0  0  0  0  0  0
   -9.5408   -4.9313  -27.2912 C   0  0  0  0  0  0  0  0  0  0  0  0
   -9.7977   -4.2900  -25.9175 C   0  0  0  0  0  0  0  0  0  0  0  0
  -10.3398   -4.9290  -25.2184 H   0  0  0  0  0  0  0  0  0  0  0  0
  -10.3022   -3.3226  -25.9485 H   0  0  0  0  0  0  0  0  0  0  0  0
   -9.8800   -4.3365  -28.1404 H   0  0  0  0  0  0  0  0  0  0  0  0
   -9.9312   -5.9444  -27.3925 H   0  0  0  0  0  0  0  0  0  0  0  0
   -7.5233   -5.8263  -26.9873 H   0  0  0  0  0  0  0  0  0  0  0  0
   -7.4795   -4.2257  -27.7269 H   0  0  0  0  0  0  0  0  0  0  0  0
   -7.8165   -5.0386  -24.4322 C   0  0  0  0  0  0  0  0  0  0  0  0
   -6.6664   -4.4044  -23.6619 C   0  0  0  0  0  0  0  0  0  0  0  0
   -5.7695   -4.3645  -24.2916 H   0  0  0  0  0  0  0  0  0  0  0  0
   -6.4072   -5.0142  -22.7982 H   0  0  0  0  0  0  0  0  0  0  0  0
   -8.6535   -5.1742  -23.7367 H   0  0  0  0  0  0  0  0  0  0  0  0
   -7.5443   -6.0500  -24.7504 H   0  0  0  0  0  0  0  0  0  0  0  0
   -8.3026   -2.1290  -26.2176 H   0  0  0  0  0  0  0  0  0  0  0  0
   -6.7078   -2.7402  -25.9614 H   0  0  0  0  0  0  0  0  0  0  0  0
   -8.7750   -2.0308  -23.8227 H   0  0  0  0  0  0  0  0  0  0  0  0
   -7.2615   -1.2137  -24.1737 H   0  0  0  0  0  0  0  0  0  0  0  0
  1  2  2  0
  2  3  1  0
  3  4  1  0
  4  5  2  0
  5  6  1  0
  6  7  2  0
  7  8  1  0
  8  9  2  0
  9 10  1  0
 10 11  2  0
 11 12  1  0
 12 13  2  0
 12 14  1  0
 11 15  1  0
 10 16  1  0
  9 17  1  0
  7 18  1  0
  5 19  1  0
  3 20  1  0
  3 21  1  0
  2 22  1  0
 22 23  1  0
 23 24  1  0
 24 25  1  0
 25 26  1  0
 26 27  1  0
 27 28  1  0
 28 29  1  0
 28 30  1  0
 27 31  1  0
 27 32  1  0
 26 33  1  0
 26 34  1  0
 25 35  1  0
 35 36  1  0
 36 37  1  0
 36 38  1  0
 35 39  1  0
 35 40  1  0
 24 41  1  0
 24 42  1  0
 23 43  1  0
 23 44  1  0
 13  4  1  0
 36 22  1  0
 13  8  1  0
 28 25  1  0
M  END
>  <cnnaffinities>  (59) 
[5.48014, 5.48021, 5.4801, 5.47887, 5.27078, 5.2708, 5.27083, 4.99607, 4.99611, 4.99608, 4.99605, 5.26228, 5.26229, 5.26229, 5.41636, 5.4164, 5.41634, 5.41634]

>  <score>  (59) 
5.48014

>  <index>  (59) 
61

>  <Smiles>  (59) 
O=C(C(c1c(nc(c2c(c(c(c(c12)[H])[H])[H])[H])[H])[H])([H])[H])N1C(C(C2(C(C(C2([H])[H])([H])[H])([H])[H])C(C1([H])[H])([H])[H])([H])[H])([H])[H]

>  <h>  (59) 
<NA>

>  <Training>  (59) 
True

>  <Success>  (59) 
True

>  <enamine_searched>  (59) 
False

>  <enamine_id>  (59) 
nan

$$$$

     RDKit          3D

 44 47  0  0  0  0  0  0  0  0999 V2000
   -5.5923   -2.9857  -21.6718 O   0  0  0  0  0  0  0  0  0  0  0  0
   -6.7943   -2.8024  -21.7676 C   0  0  0  0  0  0  0  0  0  0  0  0
   -7.4220   -1.4800  -21.2562 C   0  0  0  0  0  0  0  0  0  0  0  0
   -6.5816   -0.8237  -20.1811 C   0  0  0  0  0  0  0  0  0  0  0  0
   -6.8738   -1.0433  -18.8630 C   0  0  0  0  0  0  0  0  0  0  0  0
   -6.1835   -0.5498  -17.8020 N   0  0  0  0  0  0  0  0  0  0  0  0
   -5.1566    0.2205  -18.0668 C   0  0  0  0  0  0  0  0  0  0  0  0
   -4.7213    0.5331  -19.3801 C   0  0  0  0  0  0  0  0  0  0  0  0
   -3.5923    1.3588  -19.6199 C   0  0  0  0  0  0  0  0  0  0  0  0
   -3.1895    1.6326  -20.8978 C   0  0  0  0  0  0  0  0  0  0  0  0
   -3.8988    1.0878  -21.9911 C   0  0  0  0  0  0  0  0  0  0  0  0
   -4.9953    0.2874  -21.7859 C   0  0  0  0  0  0  0  0  0  0  0  0
   -5.4445   -0.0097  -20.4741 C   0  0  0  0  0  0  0  0  0  0  0  0
   -5.5180   -0.1391  -22.6368 H   0  0  0  0  0  0  0  0  0  0  0  0
   -3.5692    1.3078  -23.0037 H   0  0  0  0  0  0  0  0  0  0  0  0
   -2.3271    2.2705  -21.0844 H   0  0  0  0  0  0  0  0  0  0  0  0
   -3.0578    1.7743  -18.7672 H   0  0  0  0  0  0  0  0  0  0  0  0
   -4.6052    0.6277  -17.2155 H   0  0  0  0  0  0  0  0  0  0  0  0
   -7.7216   -1.6701  -18.5860 H   0  0  0  0  0  0  0  0  0  0  0  0
   -7.5638   -0.7915  -22.1012 H   0  0  0  0  0  0  0  0  0  0  0  0
   -8.4254   -1.6847  -20.8504 H   0  0  0  0  0  0  0  0  0  0  0  0
   -7.6320   -3.7643  -22.3059 N   0  0  0  0  0  0  0  0  0  0  0  0
   -8.9784   -3.5141  -22.8039 C   0  0  0  0  0  0  0  0  0  0  0  0
   -9.2707   -4.3249  -24.0637 C   0  0  0  0  0  0  0  0  0  0  0  0
   -9.0027   -5.8180  -23.8643 C   0  0  0  0  0  0  0  0  0  0  0  0
   -9.3589   -6.5982  -25.1320 C   0  0  0  0  0  0  0  0  0  0  0  0
   -8.6142   -6.3644  -26.4195 C   0  0  0  0  0  0  0  0  0  0  0  0
   -8.5083   -7.6912  -25.7211 C   0  0  0  0  0  0  0  0  0  0  0  0
   -8.9940   -8.5496  -26.1834 H   0  0  0  0  0  0  0  0  0  0  0  0
   -7.5629   -7.9385  -25.2463 H   0  0  0  0  0  0  0  0  0  0  0  0
   -9.1613   -6.3176  -27.3606 H   0  0  0  0  0  0  0  0  0  0  0  0
   -7.7425   -5.7138  -26.3806 H   0  0  0  0  0  0  0  0  0  0  0  0
  -10.4311   -6.7451  -25.2655 H   0  0  0  0  0  0  0  0  0  0  0  0
   -7.5650   -6.0033  -23.3815 C   0  0  0  0  0  0  0  0  0  0  0  0
   -7.2877   -5.1763  -22.1359 C   0  0  0  0  0  0  0  0  0  0  0  0
   -7.8609   -5.6081  -21.3017 H   0  0  0  0  0  0  0  0  0  0  0  0
   -6.2350   -5.2309  -21.8613 H   0  0  0  0  0  0  0  0  0  0  0  0
   -7.3758   -7.0594  -23.1596 H   0  0  0  0  0  0  0  0  0  0  0  0
   -6.8558   -5.7224  -24.1669 H   0  0  0  0  0  0  0  0  0  0  0  0
   -9.6710   -6.1700  -23.0669 H   0  0  0  0  0  0  0  0  0  0  0  0
  -10.3112   -4.1653  -24.3635 H   0  0  0  0  0  0  0  0  0  0  0  0
   -8.6539   -3.9583  -24.8918 H   0  0  0  0  0  0  0  0  0  0  0  0
   -9.7305   -3.7632  -22.0381 H   0  0  0  0  0  0  0  0  0  0  0  0
   -9.0788   -2.4505  -23.0276 H   0  0  0  0  0  0  0  0  0  0  0  0
  1  2  2  0
  2  3  1  0
  3  4  1  0
  4  5  2  0
  5  6  1  0
  6  7  2  0
  7  8  1  0
  8  9  2  0
  9 10  1  0
 10 11  2  0
 11 12  1  0
 12 13  2  0
 12 14  1  0
 11 15  1  0
 10 16  1  0
  9 17  1  0
  7 18  1  0
  5 19  1  0
  3 20  1  0
  3 21  1  0
  2 22  1  0
 22 23  1  0
 23 24  1  0
 24 25  1  0
 25 26  1  0
 26 27  1  0
 27 28  1  0
 28 29  1  0
 28 30  1  0
 27 31  1  0
 27 32  1  0
 26 33  1  0
 25 34  1  0
 34 35  1  0
 35 36  1  0
 35 37  1  0
 34 38  1  0
 34 39  1  0
 25 40  1  0
 24 41  1  0
 24 42  1  0
 23 43  1  0
 23 44  1  0
 13  4  1  0
 35 22  1  0
 13  8  1  0
 28 26  1  0
M  END
>  <cnnaffinities>  (60) 
[5.29737, 5.55637, 5.48384, 5.47373, 5.27893, 5.09549]

>  <score>  (60) 
5.29737

>  <index>  (60) 
62

>  <Smiles>  (60) 
O=C(C(c1c(nc(c2c(c(c(c(c12)[H])[H])[H])[H])[H])[H])([H])[H])N1C(C(C(C2(C(C2([H])[H])([H])[H])[H])(C(C1([H])[H])([H])[H])[H])([H])[H])([H])[H]

>  <h>  (60) 
<NA>

>  <Training>  (60) 
True

>  <Success>  (60) 
True

>  <enamine_searched>  (60) 
False

>  <enamine_id>  (60) 
nan

$$$$

     RDKit          3D

 57 61  0  0  0  0  0  0  0  0999 V2000
   -4.9442   -1.6986  -28.9933 C   0  0  0  0  0  0  0  0  0  0  0  0
   -5.1525   -1.6184  -27.5575 N   0  0  0  0  0  0  0  0  0  0  0  0
   -4.7557   -0.5254  -26.8483 C   0  0  0  0  0  0  0  0  0  0  0  0
   -3.9635    0.2997  -27.2720 O   0  0  0  0  0  0  0  0  0  0  0  0
   -5.3355   -0.3148  -25.4437 C   0  0  0  0  0  0  0  0  0  0  0  0
   -6.5237   -1.0651  -25.0813 N   0  0  0  0  0  0  0  0  0  0  0  0
   -6.4430   -2.1428  -24.1131 C   0  0  0  0  0  0  0  0  0  0  0  0
   -7.6543   -2.1856  -23.1311 C   0  0  2  0  0  0  0  0  0  0  0  0
   -7.3949   -1.1566  -22.0189 C   0  0  0  0  0  0  0  0  0  0  0  0
   -7.7040    0.0141  -22.0002 O   0  0  0  0  0  0  0  0  0  0  0  0
   -6.6855   -1.7979  -21.0263 N   0  0  0  0  0  0  0  0  0  0  0  0
   -6.1394   -1.0553  -19.9668 C   0  0  0  0  0  0  0  0  0  0  0  0
   -6.5662   -1.2797  -18.6842 C   0  0  0  0  0  0  0  0  0  0  0  0
   -6.0765   -0.6350  -17.6006 N   0  0  0  0  0  0  0  0  0  0  0  0
   -5.1219    0.2415  -17.8075 C   0  0  0  0  0  0  0  0  0  0  0  0
   -4.5819    0.5575  -19.0871 C   0  0  0  0  0  0  0  0  0  0  0  0
   -3.4972    1.4588  -19.2503 C   0  0  0  0  0  0  0  0  0  0  0  0
   -3.0315    1.7649  -20.4991 C   0  0  0  0  0  0  0  0  0  0  0  0
   -3.6509    1.2144  -21.6449 C   0  0  0  0  0  0  0  0  0  0  0  0
   -4.6938    0.3383  -21.5152 C   0  0  0  0  0  0  0  0  0  0  0  0
   -5.1493   -0.0553  -20.2218 C   0  0  0  0  0  0  0  0  0  0  0  0
   -5.1955   -0.0291  -22.4056 H   0  0  0  0  0  0  0  0  0  0  0  0
   -3.3032    1.4942  -22.6361 H   0  0  0  0  0  0  0  0  0  0  0  0
   -2.1933    2.4420  -20.6228 H   0  0  0  0  0  0  0  0  0  0  0  0
   -3.0557    1.8929  -18.3581 H   0  0  0  0  0  0  0  0  0  0  0  0
   -4.7230    0.7479  -16.9312 H   0  0  0  0  0  0  0  0  0  0  0  0
   -7.3655   -2.0015  -18.5061 H   0  0  0  0  0  0  0  0  0  0  0  0
   -6.5241   -3.2318  -21.2518 C   0  0  0  0  0  0  0  0  0  0  0  0
   -7.6350   -3.4853  -22.2829 C   0  0  2  0  0  0  0  0  0  0  0  0
   -7.5677   -4.7821  -23.0751 C   0  0  0  0  0  0  0  0  0  0  0  0
   -8.0830   -5.8781  -22.3513 O   0  0  0  0  0  0  0  0  0  0  0  0
   -9.0276   -5.7008  -22.2333 H   0  0  0  0  0  0  0  0  0  0  0  0
   -8.0922   -4.6513  -24.0339 H   0  0  0  0  0  0  0  0  0  0  0  0
   -6.5285   -5.0252  -23.3233 H   0  0  0  0  0  0  0  0  0  0  0  0
   -8.5574   -3.5094  -21.6902 H   0  0  0  0  0  0  0  0  0  0  0  0
   -5.5325   -3.4681  -21.6684 H   0  0  0  0  0  0  0  0  0  0  0  0
   -6.6327   -3.7867  -20.3160 H   0  0  0  0  0  0  0  0  0  0  0  0
   -8.9487   -1.8642  -23.8223 C   0  0  0  0  0  0  0  0  0  0  0  0
  -10.1680   -2.1815  -23.2168 C   0  0  0  0  0  0  0  0  0  0  0  0
  -11.3507   -1.6908  -23.7283 C   0  0  0  0  0  0  0  0  0  0  0  0
  -12.8164   -2.1348  -22.9016 Cl  0  0  0  0  0  0  0  0  0  0  0  0
  -11.3577   -0.8253  -24.8267 C   0  0  0  0  0  0  0  0  0  0  0  0
  -10.1571   -0.5212  -25.4285 C   0  0  0  0  0  0  0  0  0  0  0  0
   -8.9627   -1.0580  -24.9625 C   0  0  0  0  0  0  0  0  0  0  0  0
   -7.6985   -0.6452  -25.6490 C   0  0  0  0  0  0  0  0  0  0  0  0
   -7.7007    0.0632  -26.6470 O   0  0  0  0  0  0  0  0  0  0  0  0
  -10.0977    0.1781  -26.2489 H   0  0  0  0  0  0  0  0  0  0  0  0
  -12.2650   -0.3591  -25.1887 H   0  0  0  0  0  0  0  0  0  0  0  0
  -10.1900   -2.7624  -22.3025 H   0  0  0  0  0  0  0  0  0  0  0  0
   -5.5310   -2.0045  -23.5198 H   0  0  0  0  0  0  0  0  0  0  0  0
   -6.3551   -3.1166  -24.6139 H   0  0  0  0  0  0  0  0  0  0  0  0
   -5.5677    0.7549  -25.4158 H   0  0  0  0  0  0  0  0  0  0  0  0
   -4.5451   -0.4992  -24.7023 H   0  0  0  0  0  0  0  0  0  0  0  0
   -5.8210   -2.2438  -27.1407 H   0  0  0  0  0  0  0  0  0  0  0  0
   -4.3045   -2.5468  -29.2702 H   0  0  0  0  0  0  0  0  0  0  0  0
   -4.4608   -0.7731  -29.3164 H   0  0  0  0  0  0  0  0  0  0  0  0
   -5.9068   -1.7942  -29.5155 H   0  0  0  0  0  0  0  0  0  0  0  0
  1  2  1  0
  2  3  1  0
  3  4  2  0
  3  5  1  0
  5  6  1  0
  6  7  1  0
  8  7  1  6
  8  9  1  0
  9 10  2  0
  9 11  1  0
 11 12  1  0
 12 13  2  0
 13 14  1  0
 14 15  2  0
 15 16  1  0
 16 17  2  0
 17 18  1  0
 18 19  2  0
 19 20  1  0
 20 21  2  0
 20 22  1  0
 19 23  1  0
 18 24  1  0
 17 25  1  0
 15 26  1  0
 13 27  1  0
 11 28  1  0
 28 29  1  0
 29 30  1  0
 30 31  1  0
 31 32  1  0
 30 33  1  0
 30 34  1  0
 29 35  1  1
 28 36  1  0
 28 37  1  0
  8 38  1  0
 38 39  2  0
 39 40  1  0
 40 41  1  0
 40 42  2  0
 42 43  1  0
 43 44  2  0
 44 45  1  0
 45 46  2  0
 43 47  1  0
 42 48  1  0
 39 49  1  0
  7 50  1  0
  7 51  1  0
  5 52  1  0
  5 53  1  0
  2 54  1  0
  1 55  1  0
  1 56  1  0
  1 57  1  0
 45  6  1  0
 29  8  1  0
 44 38  1  0
 21 12  1  0
 21 16  1  0
M  END
>  <cnnaffinities>  (61) 
[5.71661, 6.07941]

>  <score>  (61) 
5.71661

>  <index>  (61) 
63

>  <Smiles>  (61) 
C(N(C(=O)C(N1C([C@@]2(C(=O)N(c3c(nc(c4c(c(c(c(c34)[H])[H])[H])[H])[H])[H])C([C@@]2(C(O[H])([H])[H])[H])([H])[H])c2c(c(Cl)c(c(c2C1=O)[H])[H])[H])([H])[H])([H])[H])[H])([H])([H])[H]

>  <h>  (61) 
<NA>

>  <Training>  (61) 
True

>  <Success>  (61) 
True

>  <enamine_searched>  (61) 
False

>  <enamine_id>  (61) 
nan

$$$$

     RDKit          3D

 55 60  0  0  0  0  0  0  0  0999 V2000
  -10.2283   -2.9882  -22.0635 C   0  0  0  0  0  0  0  0  0  0  0  0
   -9.1604   -2.0335  -22.6226 C   0  0  1  0  0  0  0  0  0  0  0  0
   -8.6915   -1.0508  -21.5321 C   0  0  0  0  0  0  0  0  0  0  0  0
   -7.3451   -1.4584  -21.2070 N   0  0  0  0  0  0  0  0  0  0  0  0
   -6.5707   -0.8555  -20.1925 C   0  0  0  0  0  0  0  0  0  0  0  0
   -6.9075   -1.0620  -18.8803 C   0  0  0  0  0  0  0  0  0  0  0  0
   -6.2219   -0.5609  -17.8272 N   0  0  0  0  0  0  0  0  0  0  0  0
   -5.1856    0.1982  -18.0943 C   0  0  0  0  0  0  0  0  0  0  0  0
   -4.7431    0.5126  -19.4115 C   0  0  0  0  0  0  0  0  0  0  0  0
   -3.6210    1.3531  -19.6365 C   0  0  0  0  0  0  0  0  0  0  0  0
   -3.2307    1.6625  -20.9096 C   0  0  0  0  0  0  0  0  0  0  0  0
   -3.9488    1.1528  -22.0170 C   0  0  0  0  0  0  0  0  0  0  0  0
   -5.0385    0.3389  -21.8303 C   0  0  0  0  0  0  0  0  0  0  0  0
   -5.4535   -0.0183  -20.5105 C   0  0  0  0  0  0  0  0  0  0  0  0
   -5.5870   -0.0350  -22.6963 H   0  0  0  0  0  0  0  0  0  0  0  0
   -3.6315    1.4115  -23.0241 H   0  0  0  0  0  0  0  0  0  0  0  0
   -2.3722    2.3068  -21.0820 H   0  0  0  0  0  0  0  0  0  0  0  0
   -3.0952    1.7501  -18.7722 H   0  0  0  0  0  0  0  0  0  0  0  0
   -4.6388    0.6089  -17.2453 H   0  0  0  0  0  0  0  0  0  0  0  0
   -7.7665   -1.6876  -18.6366 H   0  0  0  0  0  0  0  0  0  0  0  0
   -6.8214   -2.4114  -22.0421 C   0  0  0  0  0  0  0  0  0  0  0  0
   -5.7257   -2.9153  -21.9012 O   0  0  0  0  0  0  0  0  0  0  0  0
   -7.8561   -2.6930  -23.1508 C   0  0  1  0  0  0  0  0  0  0  0  0
   -7.9575   -4.2011  -23.3553 C   0  0  0  0  0  0  0  0  0  0  0  0
   -6.7019   -4.6759  -23.8958 N   0  0  0  0  0  0  0  0  0  0  0  0
   -6.2754   -5.9778  -23.4527 C   0  0  0  0  0  0  0  0  0  0  0  0
   -7.1582   -7.0384  -24.0285 C   0  0  0  0  0  0  0  0  0  0  0  0
   -8.2495   -7.5467  -23.3891 N   0  0  0  0  0  0  0  0  0  0  0  0
   -8.8113   -8.2838  -24.3218 C   0  0  0  0  0  0  0  0  0  0  0  0
   -8.0935   -8.2158  -25.4615 N   0  0  0  0  0  0  0  0  0  0  0  0
   -7.0047   -7.4410  -25.2702 N   0  0  0  0  0  0  0  0  0  0  0  0
   -8.1156   -8.8141  -26.2733 H   0  0  0  0  0  0  0  0  0  0  0  0
   -9.7157   -8.8694  -24.2173 H   0  0  0  0  0  0  0  0  0  0  0  0
   -5.2471   -6.1006  -23.7847 H   0  0  0  0  0  0  0  0  0  0  0  0
   -6.3292   -5.9917  -22.3632 H   0  0  0  0  0  0  0  0  0  0  0  0
   -6.2284   -4.2202  -25.0934 C   0  0  0  0  0  0  0  0  0  0  0  0
   -5.4922   -4.8793  -25.8145 O   0  0  0  0  0  0  0  0  0  0  0  0
   -6.6466   -2.8323  -25.3987 C   0  0  0  0  0  0  0  0  0  0  0  0
   -6.1930   -2.2907  -26.5962 C   0  0  0  0  0  0  0  0  0  0  0  0
   -6.4162   -0.9580  -26.8667 C   0  0  0  0  0  0  0  0  0  0  0  0
   -7.0929   -0.2013  -25.9149 C   0  0  0  0  0  0  0  0  0  0  0  0
   -7.2921    1.1047  -26.1651 F   0  0  0  0  0  0  0  0  0  0  0  0
   -7.5704   -0.7282  -24.7309 C   0  0  0  0  0  0  0  0  0  0  0  0
   -7.3748   -2.0861  -24.4652 C   0  0  0  0  0  0  0  0  0  0  0  0
   -8.0874   -0.0694  -24.0395 H   0  0  0  0  0  0  0  0  0  0  0  0
   -6.0567   -0.4824  -27.7689 H   0  0  0  0  0  0  0  0  0  0  0  0
   -5.6441   -2.9535  -27.2597 H   0  0  0  0  0  0  0  0  0  0  0  0
   -8.1219   -4.7214  -22.4094 H   0  0  0  0  0  0  0  0  0  0  0  0
   -8.7977   -4.4396  -24.0260 H   0  0  0  0  0  0  0  0  0  0  0  0
   -8.7119   -0.0039  -21.8606 H   0  0  0  0  0  0  0  0  0  0  0  0
   -9.3331   -1.1299  -20.6607 H   0  0  0  0  0  0  0  0  0  0  0  0
   -9.6342   -1.4986  -23.4523 H   0  0  0  0  0  0  0  0  0  0  0  0
  -10.6083   -3.6677  -22.8329 H   0  0  0  0  0  0  0  0  0  0  0  0
   -9.8382   -3.5907  -21.2349 H   0  0  0  0  0  0  0  0  0  0  0  0
  -11.0818   -2.4129  -21.6850 H   0  0  0  0  0  0  0  0  0  0  0  0
  1  2  1  0
  2  3  1  0
  3  4  1  0
  4  5  1  0
  5  6  2  0
  6  7  1  0
  7  8  2  0
  8  9  1  0
  9 10  2  0
 10 11  1  0
 11 12  2  0
 12 13  1  0
 13 14  2  0
 13 15  1  0
 12 16  1  0
 11 17  1  0
 10 18  1  0
  8 19  1  0
  6 20  1  0
  4 21  1  0
 21 22  2  0
 21 23  1  0
 23 24  1  6
 24 25  1  0
 25 26  1  0
 26 27  1  0
 27 28  1  0
 28 29  2  0
 29 30  1  0
 30 31  1  0
 30 32  1  0
 29 33  1  0
 26 34  1  0
 26 35  1  0
 25 36  1  0
 36 37  2  0
 36 38  1  0
 38 39  2  0
 39 40  1  0
 40 41  2  0
 41 42  1  0
 41 43  1  0
 43 44  2  0
 43 45  1  0
 40 46  1  0
 39 47  1  0
 24 48  1  0
 24 49  1  0
  3 50  1  0
  3 51  1  0
  2 52  1  6
  1 53  1  0
  1 54  1  0
  1 55  1  0
 23  2  1  0
 31 27  2  0
 44 38  1  0
 14  5  1  0
 44 23  1  0
 14  9  1  0
M  END
>  <cnnaffinities>  (62) 
[6.24019]

>  <score>  (62) 
6.24019

>  <index>  (62) 
64

>  <Smiles>  (62) 
C([C@]1(C(N(c2c(nc(c3c(c(c(c(c23)[H])[H])[H])[H])[H])[H])C(=O)[C@]21C(N(C(c1nc(n(n1)[H])[H])([H])[H])C(=O)c1c(c(c(F)c(c21)[H])[H])[H])([H])[H])([H])[H])[H])([H])([H])[H]

>  <h>  (62) 
<NA>

>  <Training>  (62) 
True

>  <Success>  (62) 
True

>  <enamine_searched>  (62) 
False

>  <enamine_id>  (62) 
nan

$$$$

     RDKit          3D

 55 60  0  0  0  0  0  0  0  0999 V2000
  -10.2284   -2.9716  -22.0726 C   0  0  0  0  0  0  0  0  0  0  0  0
   -9.1586   -2.0181  -22.6276 C   0  0  1  0  0  0  0  0  0  0  0  0
   -8.6915   -1.0374  -21.5332 C   0  0  0  0  0  0  0  0  0  0  0  0
   -7.3494   -1.4520  -21.2045 N   0  0  0  0  0  0  0  0  0  0  0  0
   -6.5735   -0.8512  -20.1903 C   0  0  0  0  0  0  0  0  0  0  0  0
   -6.9106   -1.0607  -18.8798 C   0  0  0  0  0  0  0  0  0  0  0  0
   -6.2235   -0.5629  -17.8245 N   0  0  0  0  0  0  0  0  0  0  0  0
   -5.1876    0.1962  -18.0940 C   0  0  0  0  0  0  0  0  0  0  0  0
   -4.7442    0.5101  -19.4110 C   0  0  0  0  0  0  0  0  0  0  0  0
   -3.6233    1.3512  -19.6370 C   0  0  0  0  0  0  0  0  0  0  0  0
   -3.2326    1.6611  -20.9090 C   0  0  0  0  0  0  0  0  0  0  0  0
   -3.9479    1.1505  -22.0187 C   0  0  0  0  0  0  0  0  0  0  0  0
   -5.0364    0.3360  -21.8325 C   0  0  0  0  0  0  0  0  0  0  0  0
   -5.4540   -0.0194  -20.5122 C   0  0  0  0  0  0  0  0  0  0  0  0
   -5.5847   -0.0342  -22.7013 H   0  0  0  0  0  0  0  0  0  0  0  0
   -3.6290    1.4122  -23.0248 H   0  0  0  0  0  0  0  0  0  0  0  0
   -2.3735    2.3047  -21.0807 H   0  0  0  0  0  0  0  0  0  0  0  0
   -3.0978    1.7478  -18.7719 H   0  0  0  0  0  0  0  0  0  0  0  0
   -4.6382    0.6102  -17.2477 H   0  0  0  0  0  0  0  0  0  0  0  0
   -7.7702   -1.6897  -18.6436 H   0  0  0  0  0  0  0  0  0  0  0  0
   -6.8268   -2.4062  -22.0385 C   0  0  0  0  0  0  0  0  0  0  0  0
   -5.7404   -2.9228  -21.8932 O   0  0  0  0  0  0  0  0  0  0  0  0
   -7.8546   -2.6845  -23.1523 C   0  0  1  0  0  0  0  0  0  0  0  0
   -7.9680   -4.1979  -23.3476 C   0  0  0  0  0  0  0  0  0  0  0  0
   -6.7225   -4.6991  -23.8904 N   0  0  0  0  0  0  0  0  0  0  0  0
   -6.2625   -5.9915  -23.4288 C   0  0  0  0  0  0  0  0  0  0  0  0
   -7.0925   -7.0943  -24.0278 C   0  0  0  0  0  0  0  0  0  0  0  0
   -7.0612   -7.5755  -25.2936 C   0  0  0  0  0  0  0  0  0  0  0  0
   -8.1938   -8.3104  -25.4901 O   0  0  0  0  0  0  0  0  0  0  0  0
   -8.8438   -8.2548  -24.3125 C   0  0  0  0  0  0  0  0  0  0  0  0
   -8.2498   -7.5665  -23.3977 N   0  0  0  0  0  0  0  0  0  0  0  0
   -9.7818   -8.7981  -24.2588 H   0  0  0  0  0  0  0  0  0  0  0  0
   -6.3538   -7.5338  -26.1147 H   0  0  0  0  0  0  0  0  0  0  0  0
   -5.2092   -6.0576  -23.7087 H   0  0  0  0  0  0  0  0  0  0  0  0
   -6.3321   -5.9725  -22.3346 H   0  0  0  0  0  0  0  0  0  0  0  0
   -6.2525   -4.2404  -25.0891 C   0  0  0  0  0  0  0  0  0  0  0  0
   -5.5382   -4.9054  -25.8277 O   0  0  0  0  0  0  0  0  0  0  0  0
   -6.6338   -2.8344  -25.3894 C   0  0  0  0  0  0  0  0  0  0  0  0
   -6.1757   -2.2896  -26.5868 C   0  0  0  0  0  0  0  0  0  0  0  0
   -6.3984   -0.9544  -26.8598 C   0  0  0  0  0  0  0  0  0  0  0  0
   -7.0785   -0.1896  -25.9153 C   0  0  0  0  0  0  0  0  0  0  0  0
   -7.2763    1.1177  -26.1677 F   0  0  0  0  0  0  0  0  0  0  0  0
   -7.5573   -0.7179  -24.7319 C   0  0  0  0  0  0  0  0  0  0  0  0
   -7.3601   -2.0771  -24.4624 C   0  0  0  0  0  0  0  0  0  0  0  0
   -8.0827   -0.0623  -24.0433 H   0  0  0  0  0  0  0  0  0  0  0  0
   -6.0353   -0.4809  -27.7626 H   0  0  0  0  0  0  0  0  0  0  0  0
   -5.6288   -2.9509  -27.2564 H   0  0  0  0  0  0  0  0  0  0  0  0
   -8.7992   -4.4168  -24.0346 H   0  0  0  0  0  0  0  0  0  0  0  0
   -8.1566   -4.6963  -22.3924 H   0  0  0  0  0  0  0  0  0  0  0  0
   -9.3373   -1.1070  -20.6627 H   0  0  0  0  0  0  0  0  0  0  0  0
   -8.6973    0.0067  -21.8682 H   0  0  0  0  0  0  0  0  0  0  0  0
   -9.6308   -1.4821  -23.4577 H   0  0  0  0  0  0  0  0  0  0  0  0
  -11.0821   -2.3953  -21.6967 H   0  0  0  0  0  0  0  0  0  0  0  0
   -9.8386   -3.5724  -21.2423 H   0  0  0  0  0  0  0  0  0  0  0  0
  -10.6073   -3.6485  -22.8453 H   0  0  0  0  0  0  0  0  0  0  0  0
  1  2  1  0
  2  3  1  0
  3  4  1  0
  4  5  1  0
  5  6  2  0
  6  7  1  0
  7  8  2  0
  8  9  1  0
  9 10  2  0
 10 11  1  0
 11 12  2  0
 12 13  1  0
 13 14  2  0
 13 15  1  0
 12 16  1  0
 11 17  1  0
 10 18  1  0
  8 19  1  0
  6 20  1  0
  4 21  1  0
 21 22  2  0
 21 23  1  0
 23 24  1  6
 24 25  1  0
 25 26  1  0
 26 27  1  0
 27 28  2  0
 28 29  1  0
 29 30  1  0
 30 31  2  0
 30 32  1  0
 28 33  1  0
 26 34  1  0
 26 35  1  0
 25 36  1  0
 36 37  2  0
 36 38  1  0
 38 39  2  0
 39 40  1  0
 40 41  2  0
 41 42  1  0
 41 43  1  0
 43 44  2  0
 43 45  1  0
 40 46  1  0
 39 47  1  0
 24 48  1  0
 24 49  1  0
  3 50  1  0
  3 51  1  0
  2 52  1  6
  1 53  1  0
  1 54  1  0
  1 55  1  0
 23  2  1  0
 31 27  1  0
 44 38  1  0
 14  5  1  0
 44 23  1  0
 14  9  1  0
M  END
>  <cnnaffinities>  (63) 
[6.13939, 6.25818]

>  <score>  (63) 
6.13939

>  <index>  (63) 
65

>  <Smiles>  (63) 
C([C@]1(C(N(c2c(nc(c3c(c(c(c(c23)[H])[H])[H])[H])[H])[H])C(=O)[C@]21C(N(C(c1c(oc(n1)[H])[H])([H])[H])C(=O)c1c(c(c(F)c(c21)[H])[H])[H])([H])[H])([H])[H])[H])([H])([H])[H]

>  <h>  (63) 
<NA>

>  <Training>  (63) 
True

>  <Success>  (63) 
True

>  <enamine_searched>  (63) 
False

>  <enamine_id>  (63) 
nan

$$$$

     RDKit          3D

 44 47  0  0  0  0  0  0  0  0999 V2000
   -7.8633   -0.6307  -24.9373 C   0  0  0  0  0  0  0  0  0  0  0  0
   -8.3877   -2.0413  -25.1100 C   0  0  0  0  0  0  0  0  0  0  0  0
   -8.3386   -2.8841  -23.8287 C   0  0  1  0  0  0  0  0  0  0  0  0
   -8.8956   -4.2636  -24.0852 C   0  0  0  0  0  0  0  0  0  0  0  0
  -10.2767   -4.5733  -24.2922 C   0  0  0  0  0  0  0  0  0  0  0  0
  -10.4789   -5.8969  -24.5452 C   0  0  0  0  0  0  0  0  0  0  0  0
   -8.9973   -6.7825  -24.5489 S   0  0  0  0  0  0  0  0  0  0  0  0
   -8.0879   -5.3553  -24.1816 C   0  0  0  0  0  0  0  0  0  0  0  0
   -6.6073   -5.3362  -23.9388 C   0  0  0  0  0  0  0  0  0  0  0  0
   -6.0939   -3.8952  -23.9609 C   0  0  0  0  0  0  0  0  0  0  0  0
   -6.9915   -2.9816  -23.2488 N   0  0  0  0  0  0  0  0  0  0  0  0
   -6.6860   -2.6709  -21.9319 C   0  0  0  0  0  0  0  0  0  0  0  0
   -5.8398   -3.2879  -21.3099 O   0  0  0  0  0  0  0  0  0  0  0  0
   -7.4055   -1.4669  -21.2759 C   0  0  0  0  0  0  0  0  0  0  0  0
   -6.5817   -0.8262  -20.1810 C   0  0  0  0  0  0  0  0  0  0  0  0
   -6.8731   -1.0460  -18.8595 C   0  0  0  0  0  0  0  0  0  0  0  0
   -6.1846   -0.5485  -17.7970 N   0  0  0  0  0  0  0  0  0  0  0  0
   -5.1580    0.2231  -18.0619 C   0  0  0  0  0  0  0  0  0  0  0  0
   -4.7220    0.5338  -19.3806 C   0  0  0  0  0  0  0  0  0  0  0  0
   -3.5924    1.3612  -19.6209 C   0  0  0  0  0  0  0  0  0  0  0  0
   -3.1931    1.6379  -20.9013 C   0  0  0  0  0  0  0  0  0  0  0  0
   -3.9066    1.0959  -21.9934 C   0  0  0  0  0  0  0  0  0  0  0  0
   -5.0031    0.2947  -21.7858 C   0  0  0  0  0  0  0  0  0  0  0  0
   -5.4468   -0.0072  -20.4703 C   0  0  0  0  0  0  0  0  0  0  0  0
   -5.5346   -0.1117  -22.6408 H   0  0  0  0  0  0  0  0  0  0  0  0
   -3.5830    1.3200  -23.0049 H   0  0  0  0  0  0  0  0  0  0  0  0
   -2.3329    2.2745  -21.0896 H   0  0  0  0  0  0  0  0  0  0  0  0
   -3.0530    1.7753  -18.7721 H   0  0  0  0  0  0  0  0  0  0  0  0
   -4.6014    0.6288  -17.2151 H   0  0  0  0  0  0  0  0  0  0  0  0
   -7.7212   -1.6715  -18.5878 H   0  0  0  0  0  0  0  0  0  0  0  0
   -7.6872   -0.7144  -22.0257 H   0  0  0  0  0  0  0  0  0  0  0  0
   -8.3434   -1.8354  -20.8399 H   0  0  0  0  0  0  0  0  0  0  0  0
   -6.0013   -3.5645  -25.0014 H   0  0  0  0  0  0  0  0  0  0  0  0
   -5.0979   -3.8288  -23.5202 H   0  0  0  0  0  0  0  0  0  0  0  0
   -6.3974   -5.7707  -22.9553 H   0  0  0  0  0  0  0  0  0  0  0  0
   -6.0681   -5.9547  -24.6680 H   0  0  0  0  0  0  0  0  0  0  0  0
  -11.4166   -6.4035  -24.7283 H   0  0  0  0  0  0  0  0  0  0  0  0
  -11.0769   -3.8372  -24.2520 H   0  0  0  0  0  0  0  0  0  0  0  0
   -8.9908   -2.4008  -23.0926 H   0  0  0  0  0  0  0  0  0  0  0  0
   -7.8388   -2.5688  -25.8935 H   0  0  0  0  0  0  0  0  0  0  0  0
   -9.4260   -2.0165  -25.4589 H   0  0  0  0  0  0  0  0  0  0  0  0
   -7.9253   -0.0749  -25.8749 H   0  0  0  0  0  0  0  0  0  0  0  0
   -6.8182   -0.6400  -24.6157 H   0  0  0  0  0  0  0  0  0  0  0  0
   -8.4466   -0.0849  -24.1893 H   0  0  0  0  0  0  0  0  0  0  0  0
  1  2  1  0
  2  3  1  0
  3  4  1  0
  4  5  1  0
  5  6  2  0
  6  7  1  0
  7  8  1  0
  8  9  1  0
  9 10  1  0
 10 11  1  0
 11 12  1  0
 12 13  2  0
 12 14  1  0
 14 15  1  0
 15 16  2  0
 16 17  1  0
 17 18  2  0
 18 19  1  0
 19 20  2  0
 20 21  1  0
 21 22  2  0
 22 23  1  0
 23 24  2  0
 23 25  1  0
 22 26  1  0
 21 27  1  0
 20 28  1  0
 18 29  1  0
 16 30  1  0
 14 31  1  0
 14 32  1  0
 10 33  1  0
 10 34  1  0
  9 35  1  0
  9 36  1  0
  6 37  1  0
  5 38  1  0
  3 39  1  1
  2 40  1  0
  2 41  1  0
  1 42  1  0
  1 43  1  0
  1 44  1  0
 11  3  1  0
 24 15  1  0
  8  4  2  0
 24 19  1  0
M  END
>  <cnnaffinities>  (64) 
[5.77922, 5.72727]

>  <score>  (64) 
5.77922

>  <index>  (64) 
66

>  <Smiles>  (64) 
C(C([C@]1(c2c(c(sc2C(C(N1C(=O)C(c1c(nc(c2c(c(c(c(c12)[H])[H])[H])[H])[H])[H])([H])[H])([H])[H])([H])[H])[H])[H])[H])([H])[H])([H])([H])[H]

>  <h>  (64) 
<NA>

>  <Training>  (64) 
True

>  <Success>  (64) 
True

>  <enamine_searched>  (64) 
False

>  <enamine_id>  (64) 
nan

$$$$

     RDKit          3D

 58 63  0  0  0  0  0  0  0  0999 V2000
   -5.8671  -10.0568  -23.0319 C   0  0  0  0  0  0  0  0  0  0  0  0
   -7.1039   -9.4138  -22.7658 C   0  0  0  0  0  0  0  0  0  0  0  0
   -7.3863   -8.1631  -22.3540 C   0  0  0  0  0  0  0  0  0  0  0  0
   -8.8079   -7.9948  -22.9143 C   0  0  0  0  0  0  0  0  0  0  0  0
   -9.2077   -6.5687  -22.7436 C   0  0  0  0  0  0  0  0  0  0  0  0
   -8.7751   -5.3550  -23.3475 N   0  0  0  0  0  0  0  0  0  0  0  0
   -7.8183   -4.6815  -22.5198 C   0  0  0  0  0  0  0  0  0  0  0  0
   -7.9958   -3.1880  -22.7135 C   0  0  2  0  0  0  0  0  0  0  0  0
   -6.8684   -2.5041  -21.9780 C   0  0  0  0  0  0  0  0  0  0  0  0
   -5.6849   -2.8429  -22.0654 O   0  0  0  0  0  0  0  0  0  0  0  0
   -7.3358   -1.4712  -21.2111 N   0  0  0  0  0  0  0  0  0  0  0  0
   -6.5713   -0.8469  -20.1803 C   0  0  0  0  0  0  0  0  0  0  0  0
   -6.8835   -1.0446  -18.8554 C   0  0  0  0  0  0  0  0  0  0  0  0
   -6.1893   -0.5433  -17.8031 N   0  0  0  0  0  0  0  0  0  0  0  0
   -5.1554    0.2234  -18.0627 C   0  0  0  0  0  0  0  0  0  0  0  0
   -4.7243    0.5348  -19.3848 C   0  0  0  0  0  0  0  0  0  0  0  0
   -3.5961    1.3691  -19.6262 C   0  0  0  0  0  0  0  0  0  0  0  0
   -3.2145    1.6562  -20.9101 C   0  0  0  0  0  0  0  0  0  0  0  0
   -3.9377    1.1304  -22.0021 C   0  0  0  0  0  0  0  0  0  0  0  0
   -5.0288    0.3256  -21.7928 C   0  0  0  0  0  0  0  0  0  0  0  0
   -5.4483   -0.0041  -20.4751 C   0  0  0  0  0  0  0  0  0  0  0  0
   -5.5822   -0.0752  -22.6345 H   0  0  0  0  0  0  0  0  0  0  0  0
   -3.6306    1.3670  -23.0153 H   0  0  0  0  0  0  0  0  0  0  0  0
   -2.3582    2.2949  -21.1023 H   0  0  0  0  0  0  0  0  0  0  0  0
   -3.0469    1.7802  -18.7820 H   0  0  0  0  0  0  0  0  0  0  0  0
   -4.5966    0.6311  -17.2170 H   0  0  0  0  0  0  0  0  0  0  0  0
   -7.7243   -1.6838  -18.5935 H   0  0  0  0  0  0  0  0  0  0  0  0
   -8.7531   -1.2745  -21.4173 C   0  0  0  0  0  0  0  0  0  0  0  0
   -9.2567   -2.5587  -22.0954 C   0  0  2  0  0  0  0  0  0  0  0  0
  -10.0467   -3.4091  -21.1559 C   0  0  0  0  0  0  0  0  0  0  0  0
  -10.4391   -4.3570  -21.5233 H   0  0  0  0  0  0  0  0  0  0  0  0
  -10.9004   -2.7620  -20.9504 H   0  0  0  0  0  0  0  0  0  0  0  0
   -9.4851   -3.5778  -20.2468 H   0  0  0  0  0  0  0  0  0  0  0  0
  -10.0080   -2.2966  -22.8346 H   0  0  0  0  0  0  0  0  0  0  0  0
   -9.2016   -1.0930  -20.4630 H   0  0  0  0  0  0  0  0  0  0  0  0
   -8.9847   -0.3847  -22.0107 H   0  0  0  0  0  0  0  0  0  0  0  0
   -8.0121   -2.9260  -24.2109 C   0  0  0  0  0  0  0  0  0  0  0  0
   -7.6144   -1.6794  -24.6957 C   0  0  0  0  0  0  0  0  0  0  0  0
   -7.6859   -1.4180  -26.0515 C   0  0  0  0  0  0  0  0  0  0  0  0
   -7.2785   -0.2239  -26.5120 F   0  0  0  0  0  0  0  0  0  0  0  0
   -8.1745   -2.3468  -26.9599 C   0  0  0  0  0  0  0  0  0  0  0  0
   -8.6157   -3.5602  -26.4795 C   0  0  0  0  0  0  0  0  0  0  0  0
   -8.5480   -3.8450  -25.1253 C   0  0  0  0  0  0  0  0  0  0  0  0
   -9.0704   -5.1230  -24.6601 C   0  0  0  0  0  0  0  0  0  0  0  0
   -9.7101   -5.9536  -25.3275 O   0  0  0  0  0  0  0  0  0  0  0  0
   -9.0226   -4.2967  -27.1621 H   0  0  0  0  0  0  0  0  0  0  0  0
   -8.2188   -2.1123  -28.0165 H   0  0  0  0  0  0  0  0  0  0  0  0
   -7.2557   -0.9054  -24.0259 H   0  0  0  0  0  0  0  0  0  0  0  0
   -7.9256   -4.9917  -21.4600 H   0  0  0  0  0  0  0  0  0  0  0  0
   -6.8391   -5.0443  -22.8185 H   0  0  0  0  0  0  0  0  0  0  0  0
   -9.2130   -6.4040  -21.7169 H   0  0  0  0  0  0  0  0  0  0  0  0
  -10.1888   -6.6777  -23.2056 H   0  0  0  0  0  0  0  0  0  0  0  0
   -8.8163   -8.8252  -24.0796 O   0  0  0  0  0  0  0  0  0  0  0  0
   -8.8078   -7.9947  -22.9142 N   0  0  0  0  0  0  0  0  0  0  0  0
   -6.8486   -7.7025  -21.4568 H   0  0  0  0  0  0  0  0  0  0  0  0
   -4.9893   -9.6037  -23.5187 H   0  0  0  0  0  0  0  0  0  0  0  0
   -5.9102  -10.0569  -21.9394 H   0  0  0  0  0  0  0  0  0  0  0  0
   -5.8929  -11.1228  -23.2118 H   0  0  0  0  0  0  0  0  0  0  0  0
  1  2  1  0
  2  3  1  0
  3  4  2  0
  4  5  1  0
  5  6  1  0
  6  7  1  0
  8  7  1  6
  8  9  1  0
  9 10  2  0
  9 11  1  0
 11 12  1  0
 12 13  2  0
 13 14  1  0
 14 15  2  0
 15 16  1  0
 16 17  2  0
 17 18  1  0
 18 19  2  0
 19 20  1  0
 20 21  2  0
 20 22  1  0
 19 23  1  0
 18 24  1  0
 17 25  1  0
 15 26  1  0
 13 27  1  0
 11 28  1  0
 28 29  1  0
 29 30  1  0
 30 31  1  0
 30 32  1  0
 30 33  1  0
 29 34  1  6
 28 35  1  0
 28 36  1  0
  8 37  1  0
 37 38  2  0
 38 39  1  0
 39 40  1  0
 39 41  2  0
 41 42  1  0
 42 43  2  0
 43 44  1  0
 44 45  2  0
 42 46  1  0
 41 47  1  0
 38 48  1  0
  7 49  1  0
  7 50  1  0
  5 51  1  0
  5 52  1  0
  4 53  1  0
 53 54  1  0
  3 55  1  0
  1 56  1  0
  1 57  1  0
  1 58  1  0
 54  2  2  0
 44  6  1  0
 29  8  1  0
 43 37  1  0
 21 12  1  0
 21 16  1  0
M  END
>  <cnnaffinities>  (65) 
[6.34833]

>  <score>  (65) 
6.34833

>  <index>  (65) 
67

>  <Smiles>  (65) 
C(c1c(c(C(N2C([C@@]3(C(=O)N(c4c(nc(c5c(c(c(c(c45)[H])[H])[H])[H])[H])[H])C([C@@]3(C([H])([H])[H])[H])([H])[H])c3c(c(F)c(c(c3C2=O)[H])[H])[H])([H])[H])([H])[H])on1)[H])([H])([H])[H]

>  <h>  (65) 
<NA>

>  <Training>  (65) 
True

>  <Success>  (65) 
True

>  <enamine_searched>  (65) 
False

>  <enamine_id>  (65) 
nan

$$$$

     RDKit          3D

 65 70  0  0  0  0  0  0  0  0999 V2000
   -8.7741    0.2323  -20.7231 O   0  0  0  0  0  0  0  0  0  0  0  0
   -8.1424   -0.2055  -21.6646 C   0  0  0  0  0  0  0  0  0  0  0  0
   -7.2504   -1.4049  -21.3657 C   0  0  0  0  0  0  0  0  0  0  0  0
   -6.3628   -0.9615  -20.2390 C   0  0  0  0  0  0  0  0  0  0  0  0
   -6.7315   -1.1841  -18.9398 C   0  0  0  0  0  0  0  0  0  0  0  0
   -6.1330   -0.6319  -17.8578 N   0  0  0  0  0  0  0  0  0  0  0  0
   -5.1277    0.1854  -18.0773 C   0  0  0  0  0  0  0  0  0  0  0  0
   -4.6289    0.4972  -19.3722 C   0  0  0  0  0  0  0  0  0  0  0  0
   -3.5554    1.4023  -19.5751 C   0  0  0  0  0  0  0  0  0  0  0  0
   -3.1312    1.7189  -20.8387 C   0  0  0  0  0  0  0  0  0  0  0  0
   -3.7753    1.1551  -21.9611 C   0  0  0  0  0  0  0  0  0  0  0  0
   -4.8193    0.2778  -21.7915 C   0  0  0  0  0  0  0  0  0  0  0  0
   -5.2720   -0.0823  -20.4930 C   0  0  0  0  0  0  0  0  0  0  0  0
   -5.3008   -0.1278  -22.6752 H   0  0  0  0  0  0  0  0  0  0  0  0
   -3.4524    1.4241  -22.9650 H   0  0  0  0  0  0  0  0  0  0  0  0
   -2.3057    2.4091  -20.9886 H   0  0  0  0  0  0  0  0  0  0  0  0
   -3.0798    1.8374  -18.7003 H   0  0  0  0  0  0  0  0  0  0  0  0
   -4.6623    0.6568  -17.2070 H   0  0  0  0  0  0  0  0  0  0  0  0
   -7.6024   -1.8052  -18.7282 H   0  0  0  0  0  0  0  0  0  0  0  0
   -6.6677   -1.7368  -22.2221 H   0  0  0  0  0  0  0  0  0  0  0  0
   -7.9196   -2.2070  -21.0279 H   0  0  0  0  0  0  0  0  0  0  0  0
   -8.1389    0.3860  -22.9082 N   0  0  0  0  0  0  0  0  0  0  0  0
   -7.8760   -0.3812  -24.1227 C   0  0  0  0  0  0  0  0  0  0  0  0
   -9.0416   -1.2432  -24.5469 C   0  0  0  0  0  0  0  0  0  0  0  0
   -9.9853   -0.7833  -25.4600 C   0  0  0  0  0  0  0  0  0  0  0  0
  -11.0858   -1.5683  -25.7784 C   0  0  0  0  0  0  0  0  0  0  0  0
  -11.2514   -2.8250  -25.2067 C   0  0  0  0  0  0  0  0  0  0  0  0
  -10.2970   -3.2844  -24.3115 C   0  0  0  0  0  0  0  0  0  0  0  0
  -10.4807   -4.8668  -23.6005 Cl  0  0  0  0  0  0  0  0  0  0  0  0
   -9.2016   -2.5047  -23.9686 C   0  0  0  0  0  0  0  0  0  0  0  0
   -8.4749   -2.8984  -23.2644 H   0  0  0  0  0  0  0  0  0  0  0  0
  -12.1183   -3.4359  -25.4296 H   0  0  0  0  0  0  0  0  0  0  0  0
  -11.8213   -1.2078  -26.4906 H   0  0  0  0  0  0  0  0  0  0  0  0
   -9.8517    0.1825  -25.9507 H   0  0  0  0  0  0  0  0  0  0  0  0
   -7.6033    0.3095  -24.9211 H   0  0  0  0  0  0  0  0  0  0  0  0
   -7.0113   -1.0236  -23.9537 H   0  0  0  0  0  0  0  0  0  0  0  0
   -8.5148    1.8002  -22.9626 C   0  0  2  0  0  0  0  0  0  0  0  0
  -10.0209    2.1517  -22.9576 C   0  0  0  0  0  0  0  0  0  0  0  0
  -10.0340    3.6330  -23.4346 C   0  0  0  0  0  0  0  0  0  0  0  0
   -8.5536    3.9202  -23.7023 C   0  0  2  0  0  0  0  0  0  0  0  0
   -8.0346    2.5767  -24.1936 C   0  0  0  0  0  0  0  0  0  0  0  0
   -6.9482    2.5203  -24.3216 H   0  0  0  0  0  0  0  0  0  0  0  0
   -8.5438    2.2590  -25.1092 H   0  0  0  0  0  0  0  0  0  0  0  0
   -7.8916    4.0512  -22.3106 N   0  0  2  0  0  4  0  0  0  0  0  0
   -6.5573    4.7180  -22.2925 C   0  0  0  0  0  0  0  0  0  0  0  0
   -6.6864    6.2366  -22.3037 C   0  0  0  0  0  0  0  0  0  0  0  0
   -6.7150    6.8958  -20.9128 C   0  0  0  0  0  0  0  0  0  0  0  0
   -5.3571    7.3386  -21.0436 O   0  0  0  0  0  0  0  0  0  0  0  0
   -5.3374    6.9555  -22.4268 C   0  0  0  0  0  0  0  0  0  0  0  0
   -4.4766    6.3177  -22.6677 H   0  0  0  0  0  0  0  0  0  0  0  0
   -5.3364    7.8286  -23.0942 H   0  0  0  0  0  0  0  0  0  0  0  0
   -7.3975    7.7467  -20.8048 H   0  0  0  0  0  0  0  0  0  0  0  0
   -6.8437    6.2113  -20.0661 H   0  0  0  0  0  0  0  0  0  0  0  0
   -7.4770    6.5518  -22.9906 H   0  0  0  0  0  0  0  0  0  0  0  0
   -5.9603    4.3762  -23.1512 H   0  0  0  0  0  0  0  0  0  0  0  0
   -6.0147    4.4116  -21.3858 H   0  0  0  0  0  0  0  0  0  0  0  0
   -7.8723    2.6239  -21.8210 C   0  0  0  0  0  0  0  0  0  0  0  0
   -8.4364    2.5518  -20.8950 H   0  0  0  0  0  0  0  0  0  0  0  0
   -6.8443    2.3090  -21.6333 H   0  0  0  0  0  0  0  0  0  0  0  0
   -8.5100    4.6033  -21.6884 H   0  0  0  0  0  0  0  0  0  0  0  0
   -8.3438    4.7896  -24.3164 H   0  0  0  0  0  0  0  0  0  0  0  0
  -10.6534    3.7746  -24.3277 H   0  0  0  0  0  0  0  0  0  0  0  0
  -10.4097    4.3151  -22.6645 H   0  0  0  0  0  0  0  0  0  0  0  0
  -10.5551    1.5045  -23.6586 H   0  0  0  0  0  0  0  0  0  0  0  0
  -10.4534    2.0530  -21.9634 H   0  0  0  0  0  0  0  0  0  0  0  0
  1  2  2  0
  2  3  1  0
  3  4  1  0
  4  5  2  0
  5  6  1  0
  6  7  2  0
  7  8  1  0
  8  9  2  0
  9 10  1  0
 10 11  2  0
 11 12  1  0
 12 13  2  0
 12 14  1  0
 11 15  1  0
 10 16  1  0
  9 17  1  0
  7 18  1  0
  5 19  1  0
  3 20  1  0
  3 21  1  0
  2 22  1  0
 22 23  1  0
 23 24  1  0
 24 25  2  0
 25 26  1  0
 26 27  2  0
 27 28  1  0
 28 29  1  0
 28 30  2  0
 30 31  1  0
 27 32  1  0
 26 33  1  0
 25 34  1  0
 23 35  1  0
 23 36  1  0
 37 22  1  6
 37 38  1  0
 38 39  1  0
 39 40  1  0
 40 41  1  0
 41 42  1  0
 41 43  1  0
 40 44  1  0
 44 45  1  0
 45 46  1  0
 46 47  1  0
 47 48  1  0
 48 49  1  0
 49 50  1  0
 49 51  1  0
 47 52  1  0
 47 53  1  0
 46 54  1  0
 45 55  1  0
 45 56  1  0
 44 57  1  0
 57 58  1  0
 57 59  1  0
 44 60  1  1
 40 61  1  6
 39 62  1  0
 39 63  1  0
 38 64  1  0
 38 65  1  0
 13  4  1  0
 30 24  1  0
 41 37  1  0
 49 46  1  0
 13  8  1  0
 57 37  1  0
M  CHG  1  44   1
M  END
>  <cnnaffinities>  (66) 
[6.28754, 6.47274, 6.25302]

>  <score>  (66) 
6.28754

>  <index>  (66) 
68

>  <Smiles>  (66) 
O=C(C(c1c(nc(c2c(c(c(c(c12)[H])[H])[H])[H])[H])[H])([H])[H])N(C(c1c(c(c(c(Cl)c1[H])[H])[H])[H])([H])[H])[C@]12C(C([C@](C1([H])[H])([N@+](C(C1(C(OC1([H])[H])([H])[H])[H])([H])[H])(C2([H])[H])[H])[H])([H])[H])([H])[H]

>  <h>  (66) 
<NA>

>  <Training>  (66) 
True

>  <Success>  (66) 
True

>  <enamine_searched>  (66) 
False

>  <enamine_id>  (66) 
nan

$$$$

     RDKit          3D

 63 67  0  0  0  0  0  0  0  0999 V2000
   -3.5377    3.0417  -26.2686 C   0  0  0  0  0  0  0  0  0  0  0  0
   -4.3601    2.0217  -26.0314 C   0  0  0  0  0  0  0  0  0  0  0  0
   -4.8645    1.1367  -27.1277 C   0  0  0  0  0  0  0  0  0  0  0  0
   -4.6743    1.3816  -28.3035 O   0  0  0  0  0  0  0  0  0  0  0  0
   -5.6601    0.0427  -26.7308 N   0  0  0  0  0  0  0  0  0  0  0  0
   -6.9679   -0.0411  -27.3709 C   0  0  0  0  0  0  0  0  0  0  0  0
   -7.6502   -1.3694  -27.0845 C   0  0  0  0  0  0  0  0  0  0  0  0
   -7.6375   -1.6630  -25.5864 C   0  0  0  0  0  0  0  0  0  0  0  0
   -6.2224   -1.6478  -25.0543 C   0  0  0  0  0  0  0  0  0  0  0  0
   -5.2752   -0.8312  -25.7047 C   0  0  0  0  0  0  0  0  0  0  0  0
   -3.9206   -0.9314  -25.3664 C   0  0  0  0  0  0  0  0  0  0  0  0
   -3.5129   -1.7785  -24.3601 C   0  0  0  0  0  0  0  0  0  0  0  0
   -4.4519   -2.5071  -23.6245 C   0  0  0  0  0  0  0  0  0  0  0  0
   -5.7907   -2.3943  -23.9589 C   0  0  0  0  0  0  0  0  0  0  0  0
   -6.8303   -3.1859  -23.0621 N   0  0  1  0  0  4  0  0  0  0  0  0
   -6.7011   -4.7068  -23.2747 C   0  0  0  0  0  0  0  0  0  0  0  0
   -7.0286   -5.0851  -24.6948 C   0  0  0  0  0  0  0  0  0  0  0  0
   -8.3412   -5.3830  -25.0650 C   0  0  0  0  0  0  0  0  0  0  0  0
   -8.6628   -5.6940  -26.3819 C   0  0  0  0  0  0  0  0  0  0  0  0
   -7.6757   -5.7240  -27.3620 C   0  0  0  0  0  0  0  0  0  0  0  0
   -6.3678   -5.4330  -26.9901 C   0  0  0  0  0  0  0  0  0  0  0  0
   -5.1213   -5.4515  -28.2112 Cl  0  0  0  0  0  0  0  0  0  0  0  0
   -6.0339   -5.1239  -25.6773 C   0  0  0  0  0  0  0  0  0  0  0  0
   -5.0052   -4.8807  -25.4200 H   0  0  0  0  0  0  0  0  0  0  0  0
   -7.9094   -5.9707  -28.3953 H   0  0  0  0  0  0  0  0  0  0  0  0
   -9.6918   -5.9266  -26.6458 H   0  0  0  0  0  0  0  0  0  0  0  0
   -9.1200   -5.3529  -24.3066 H   0  0  0  0  0  0  0  0  0  0  0  0
   -7.3513   -5.2276  -22.5669 H   0  0  0  0  0  0  0  0  0  0  0  0
   -5.6726   -4.9775  -23.0384 H   0  0  0  0  0  0  0  0  0  0  0  0
   -6.7280   -2.8354  -21.6485 C   0  0  0  0  0  0  0  0  0  0  0  0
   -6.1221   -3.5605  -20.8930 O   0  0  0  0  0  0  0  0  0  0  0  0
   -7.3819   -1.5098  -21.2325 C   0  0  0  0  0  0  0  0  0  0  0  0
   -6.5848   -0.8044  -20.1659 C   0  0  0  0  0  0  0  0  0  0  0  0
   -6.8748   -1.0331  -18.8472 C   0  0  0  0  0  0  0  0  0  0  0  0
   -6.1813   -0.5427  -17.7895 N   0  0  0  0  0  0  0  0  0  0  0  0
   -5.1542    0.2224  -18.0622 C   0  0  0  0  0  0  0  0  0  0  0  0
   -4.7222    0.5393  -19.3804 C   0  0  0  0  0  0  0  0  0  0  0  0
   -3.5878    1.3549  -19.6192 C   0  0  0  0  0  0  0  0  0  0  0  0
   -3.1910    1.6328  -20.8978 C   0  0  0  0  0  0  0  0  0  0  0  0
   -3.9177    1.1096  -21.9923 C   0  0  0  0  0  0  0  0  0  0  0  0
   -5.0267    0.3252  -21.7895 C   0  0  0  0  0  0  0  0  0  0  0  0
   -5.4566    0.0154  -20.4705 C   0  0  0  0  0  0  0  0  0  0  0  0
   -5.5763   -0.0738  -22.6395 H   0  0  0  0  0  0  0  0  0  0  0  0
   -3.5962    1.3425  -23.0064 H   0  0  0  0  0  0  0  0  0  0  0  0
   -2.3270    2.2665  -21.0764 H   0  0  0  0  0  0  0  0  0  0  0  0
   -3.0579    1.7603  -18.7614 H   0  0  0  0  0  0  0  0  0  0  0  0
   -4.6062    0.6302  -17.2128 H   0  0  0  0  0  0  0  0  0  0  0  0
   -7.7207   -1.6686  -18.5832 H   0  0  0  0  0  0  0  0  0  0  0  0
   -8.3794   -1.7446  -20.8277 H   0  0  0  0  0  0  0  0  0  0  0  0
   -7.5474   -0.8745  -22.1085 H   0  0  0  0  0  0  0  0  0  0  0  0
   -7.7342   -2.8505  -23.4469 H   0  0  0  0  0  0  0  0  0  0  0  0
   -4.1946   -3.1228  -22.7699 H   0  0  0  0  0  0  0  0  0  0  0  0
   -2.4426   -1.7909  -24.1844 H   0  0  0  0  0  0  0  0  0  0  0  0
   -3.1550   -0.3707  -25.8946 H   0  0  0  0  0  0  0  0  0  0  0  0
   -8.1153   -2.6289  -25.3941 H   0  0  0  0  0  0  0  0  0  0  0  0
   -8.2269   -0.9104  -25.0438 H   0  0  0  0  0  0  0  0  0  0  0  0
   -7.1509   -2.1828  -27.6287 H   0  0  0  0  0  0  0  0  0  0  0  0
   -8.6792   -1.3178  -27.4575 H   0  0  0  0  0  0  0  0  0  0  0  0
   -6.8113    0.1184  -28.4437 H   0  0  0  0  0  0  0  0  0  0  0  0
   -7.5965    0.7849  -26.9995 H   0  0  0  0  0  0  0  0  0  0  0  0
   -4.7556    1.8281  -25.0342 H   0  0  0  0  0  0  0  0  0  0  0  0
   -3.2195    3.7167  -25.4776 H   0  0  0  0  0  0  0  0  0  0  0  0
   -3.1661    3.2526  -27.2680 H   0  0  0  0  0  0  0  0  0  0  0  0
  1  2  2  0
  2  3  1  0
  3  4  2  0
  3  5  1  0
  5  6  1  0
  6  7  1  0
  7  8  1  0
  8  9  1  0
  9 10  2  0
 10 11  1  0
 11 12  2  0
 12 13  1  0
 13 14  2  0
 14 15  1  0
 15 16  1  0
 16 17  1  0
 17 18  2  0
 18 19  1  0
 19 20  2  0
 20 21  1  0
 21 22  1  0
 21 23  2  0
 23 24  1  0
 20 25  1  0
 19 26  1  0
 18 27  1  0
 16 28  1  0
 16 29  1  0
 15 30  1  0
 30 31  2  0
 30 32  1  0
 32 33  1  0
 33 34  2  0
 34 35  1  0
 35 36  2  0
 36 37  1  0
 37 38  2  0
 38 39  1  0
 39 40  2  0
 40 41  1  0
 41 42  2  0
 41 43  1  0
 40 44  1  0
 39 45  1  0
 38 46  1  0
 36 47  1  0
 34 48  1  0
 32 49  1  0
 32 50  1  0
 15 51  1  6
 13 52  1  0
 12 53  1  0
 11 54  1  0
  8 55  1  0
  8 56  1  0
  7 57  1  0
  7 58  1  0
  6 59  1  0
  6 60  1  0
  2 61  1  0
  1 62  1  0
  1 63  1  0
 10  5  1  0
 23 17  1  0
 42 33  1  0
 14  9  1  0
 42 37  1  0
M  CHG  1  15   1
M  END
>  <cnnaffinities>  (67) 
[6.40225]

>  <score>  (67) 
6.40225

>  <index>  (67) 
69

>  <Smiles>  (67) 
C(=C(C(=O)N1C(C(C(c2c1c(c(c(c2[N@@+](C(c1c(c(c(c(Cl)c1[H])[H])[H])[H])([H])[H])(C(=O)C(c1c(nc(c2c(c(c(c(c12)[H])[H])[H])[H])[H])[H])([H])[H])[H])[H])[H])[H])([H])[H])([H])[H])([H])[H])[H])([H])[H]

>  <h>  (67) 
<NA>

>  <Training>  (67) 
True

>  <Success>  (67) 
True

>  <enamine_searched>  (67) 
False

>  <enamine_id>  (67) 
nan

$$$$

     RDKit          3D

 52 54  0  0  0  0  0  0  0  0999 V2000
  -10.0218   -6.9161  -27.6317 C   0  0  0  0  0  0  0  0  0  0  0  0
  -10.0629   -5.9797  -26.4249 C   0  0  0  0  0  0  0  0  0  0  0  0
  -11.4142   -6.1200  -25.7183 C   0  0  0  0  0  0  0  0  0  0  0  0
  -11.7006   -5.1915  -25.2193 H   0  0  0  0  0  0  0  0  0  0  0  0
  -11.4003   -6.9463  -25.0004 H   0  0  0  0  0  0  0  0  0  0  0  0
  -12.2189   -6.3296  -26.4235 H   0  0  0  0  0  0  0  0  0  0  0  0
   -8.8544   -6.2546  -25.5189 C   0  0  0  0  0  0  0  0  0  0  0  0
   -8.7302   -5.5131  -24.1838 C   0  0  0  0  0  0  0  0  0  0  0  0
   -9.6836   -6.1023  -23.1728 C   0  0  0  0  0  0  0  0  0  0  0  0
   -9.5375   -7.1817  -23.1943 H   0  0  0  0  0  0  0  0  0  0  0  0
  -10.7332   -5.8719  -23.3522 H   0  0  0  0  0  0  0  0  0  0  0  0
   -9.4420   -5.7763  -22.1665 H   0  0  0  0  0  0  0  0  0  0  0  0
   -8.9352   -3.9982  -24.2990 C   0  0  0  0  0  0  0  0  0  0  0  0
   -8.7805   -3.3588  -22.9219 C   0  0  0  0  0  0  0  0  0  0  0  0
   -7.4741   -3.6789  -22.3503 N   0  0  0  0  0  0  0  0  0  0  0  0
   -6.7060   -2.7885  -21.6572 C   0  0  0  0  0  0  0  0  0  0  0  0
   -5.5561   -3.0353  -21.3316 O   0  0  0  0  0  0  0  0  0  0  0  0
   -7.3796   -1.4715  -21.2618 C   0  0  0  0  0  0  0  0  0  0  0  0
   -6.5987   -0.8041  -20.1840 C   0  0  0  0  0  0  0  0  0  0  0  0
   -6.9080   -1.0568  -18.8758 C   0  0  0  0  0  0  0  0  0  0  0  0
   -6.2277   -0.5749  -17.8067 N   0  0  0  0  0  0  0  0  0  0  0  0
   -5.1946    0.1913  -18.0656 C   0  0  0  0  0  0  0  0  0  0  0  0
   -4.7395    0.5100  -19.3752 C   0  0  0  0  0  0  0  0  0  0  0  0
   -3.6148    1.3387  -19.6109 C   0  0  0  0  0  0  0  0  0  0  0  0
   -3.2045    1.6068  -20.8899 C   0  0  0  0  0  0  0  0  0  0  0  0
   -3.8936    1.0502  -21.9923 C   0  0  0  0  0  0  0  0  0  0  0  0
   -4.9891    0.2495  -21.7927 C   0  0  0  0  0  0  0  0  0  0  0  0
   -5.4520   -0.0211  -20.4769 C   0  0  0  0  0  0  0  0  0  0  0  0
   -5.4998   -0.1872  -22.6472 H   0  0  0  0  0  0  0  0  0  0  0  0
   -3.5569    1.2727  -23.0017 H   0  0  0  0  0  0  0  0  0  0  0  0
   -2.3520    2.2550  -21.0679 H   0  0  0  0  0  0  0  0  0  0  0  0
   -3.0969    1.7655  -18.7551 H   0  0  0  0  0  0  0  0  0  0  0  0
   -4.6531    0.5928  -17.2068 H   0  0  0  0  0  0  0  0  0  0  0  0
   -7.7526   -1.7052  -18.6439 H   0  0  0  0  0  0  0  0  0  0  0  0
   -8.3851   -1.7047  -20.8895 H   0  0  0  0  0  0  0  0  0  0  0  0
   -7.4871   -0.8227  -22.1395 H   0  0  0  0  0  0  0  0  0  0  0  0
   -7.0642   -5.0784  -22.3046 C   0  0  0  0  0  0  0  0  0  0  0  0
   -7.3019   -5.7643  -23.6447 C   0  0  0  0  0  0  0  0  0  0  0  0
   -7.1193   -6.8413  -23.5186 H   0  0  0  0  0  0  0  0  0  0  0  0
   -6.5757   -5.3942  -24.3822 H   0  0  0  0  0  0  0  0  0  0  0  0
   -7.5943   -5.5955  -21.4873 H   0  0  0  0  0  0  0  0  0  0  0  0
   -6.0079   -5.0929  -22.0368 H   0  0  0  0  0  0  0  0  0  0  0  0
   -8.8824   -2.2768  -23.0073 H   0  0  0  0  0  0  0  0  0  0  0  0
   -9.5959   -3.6965  -22.2605 H   0  0  0  0  0  0  0  0  0  0  0  0
   -8.1923   -3.5830  -24.9965 H   0  0  0  0  0  0  0  0  0  0  0  0
   -9.9344   -3.7480  -24.6826 H   0  0  0  0  0  0  0  0  0  0  0  0
   -8.8549   -7.3314  -25.2820 H   0  0  0  0  0  0  0  0  0  0  0  0
   -7.9372   -6.0447  -26.0815 H   0  0  0  0  0  0  0  0  0  0  0  0
   -9.9952   -4.9478  -26.7856 H   0  0  0  0  0  0  0  0  0  0  0  0
  -10.8716   -6.7291  -28.2978 H   0  0  0  0  0  0  0  0  0  0  0  0
  -10.0824   -7.9566  -27.2937 H   0  0  0  0  0  0  0  0  0  0  0  0
   -9.1006   -6.8119  -28.2120 H   0  0  0  0  0  0  0  0  0  0  0  0
  1  2  1  0
  2  3  1  0
  3  4  1  0
  3  5  1  0
  3  6  1  0
  2  7  1  0
  7  8  1  0
  8  9  1  0
  9 10  1  0
  9 11  1  0
  9 12  1  0
  8 13  1  0
 13 14  1  0
 14 15  1  0
 15 16  1  0
 16 17  2  0
 16 18  1  0
 18 19  1  0
 19 20  2  0
 20 21  1  0
 21 22  2  0
 22 23  1  0
 23 24  2  0
 24 25  1  0
 25 26  2  0
 26 27  1  0
 27 28  2  0
 27 29  1  0
 26 30  1  0
 25 31  1  0
 24 32  1  0
 22 33  1  0
 20 34  1  0
 18 35  1  0
 18 36  1  0
 15 37  1  0
 37 38  1  0
 38 39  1  0
 38 40  1  0
 37 41  1  0
 37 42  1  0
 14 43  1  0
 14 44  1  0
 13 45  1  0
 13 46  1  0
  7 47  1  0
  7 48  1  0
  2 49  1  0
  1 50  1  0
  1 51  1  0
  1 52  1  0
 38  8  1  0
 28 19  1  0
 28 23  1  0
M  END
>  <cnnaffinities>  (68) 
[5.63304, 5.80551, 5.80675, 5.71379, 5.70799, 5.72097]

>  <score>  (68) 
5.63304

>  <index>  (68) 
70

>  <Smiles>  (68) 
C(C(C([H])([H])[H])(C(C1(C([H])([H])[H])C(C(N(C(=O)C(c2c(nc(c3c(c(c(c(c23)[H])[H])[H])[H])[H])[H])([H])[H])C(C1([H])[H])([H])[H])([H])[H])([H])[H])([H])[H])[H])([H])([H])[H]

>  <h>  (68) 
<NA>

>  <Training>  (68) 
True

>  <Success>  (68) 
True

>  <enamine_searched>  (68) 
False

>  <enamine_id>  (68) 
nan

$$$$

     RDKit          3D

 50 54  0  0  0  0  0  0  0  0999 V2000
  -10.2472   -2.9685  -22.0736 C   0  0  0  0  0  0  0  0  0  0  0  0
   -9.1662   -2.0198  -22.6376 C   0  0  1  0  0  0  0  0  0  0  0  0
   -8.6921   -1.0458  -21.5358 C   0  0  0  0  0  0  0  0  0  0  0  0
   -7.3451   -1.4666  -21.2140 N   0  0  0  0  0  0  0  0  0  0  0  0
   -6.5646   -0.8610  -20.1897 C   0  0  0  0  0  0  0  0  0  0  0  0
   -6.8902   -1.0571  -18.8724 C   0  0  0  0  0  0  0  0  0  0  0  0
   -6.2038   -0.5461  -17.8225 N   0  0  0  0  0  0  0  0  0  0  0  0
   -5.1669    0.2120  -18.0828 C   0  0  0  0  0  0  0  0  0  0  0  0
   -4.7312    0.5304  -19.3983 C   0  0  0  0  0  0  0  0  0  0  0  0
   -3.6051    1.3646  -19.6327 C   0  0  0  0  0  0  0  0  0  0  0  0
   -3.2219    1.6653  -20.9098 C   0  0  0  0  0  0  0  0  0  0  0  0
   -3.9529    1.1535  -22.0071 C   0  0  0  0  0  0  0  0  0  0  0  0
   -5.0446    0.3484  -21.8091 C   0  0  0  0  0  0  0  0  0  0  0  0
   -5.4506   -0.0080  -20.4927 C   0  0  0  0  0  0  0  0  0  0  0  0
   -5.5984   -0.0422  -22.6630 H   0  0  0  0  0  0  0  0  0  0  0  0
   -3.6423    1.4000  -23.0193 H   0  0  0  0  0  0  0  0  0  0  0  0
   -2.3646    2.3117  -21.0944 H   0  0  0  0  0  0  0  0  0  0  0  0
   -3.0681    1.7681  -18.7769 H   0  0  0  0  0  0  0  0  0  0  0  0
   -4.6224    0.6147  -17.2276 H   0  0  0  0  0  0  0  0  0  0  0  0
   -7.7451   -1.6776  -18.6030 H   0  0  0  0  0  0  0  0  0  0  0  0
   -6.8243   -2.3978  -22.0826 C   0  0  0  0  0  0  0  0  0  0  0  0
   -5.7070   -2.8639  -21.9867 O   0  0  0  0  0  0  0  0  0  0  0  0
   -7.8673   -2.6974  -23.1810 C   0  0  1  0  0  0  0  0  0  0  0  0
   -8.0161   -4.2182  -23.3863 C   0  0  0  0  0  0  0  0  0  0  0  0
   -6.8334   -4.8044  -23.9833 N   0  0  0  0  0  0  0  0  0  0  0  0
   -6.2997   -6.0679  -23.4995 C   0  0  0  0  0  0  0  0  0  0  0  0
   -4.9749   -5.9215  -22.8636 C   0  0  0  0  0  0  0  0  0  0  0  0
   -3.9420   -5.8114  -22.3579 N   0  0  0  0  0  0  0  0  0  0  0  0
   -6.9899   -6.4905  -22.7639 H   0  0  0  0  0  0  0  0  0  0  0  0
   -6.2174   -6.7900  -24.3182 H   0  0  0  0  0  0  0  0  0  0  0  0
   -6.2667   -4.2691  -25.1094 C   0  0  0  0  0  0  0  0  0  0  0  0
   -5.4905   -4.9180  -25.7926 O   0  0  0  0  0  0  0  0  0  0  0  0
   -6.6305   -2.8390  -25.3944 C   0  0  0  0  0  0  0  0  0  0  0  0
   -6.1388   -2.2604  -26.5642 C   0  0  0  0  0  0  0  0  0  0  0  0
   -6.3509   -0.9277  -26.8475 C   0  0  0  0  0  0  0  0  0  0  0  0
   -7.0518   -0.1790  -25.9126 C   0  0  0  0  0  0  0  0  0  0  0  0
   -7.2463    1.1276  -26.1631 F   0  0  0  0  0  0  0  0  0  0  0  0
   -7.5551   -0.7179  -24.7443 C   0  0  0  0  0  0  0  0  0  0  0  0
   -7.3818   -2.0843  -24.4856 C   0  0  0  0  0  0  0  0  0  0  0  0
   -8.0673   -0.0467  -24.0602 H   0  0  0  0  0  0  0  0  0  0  0  0
   -5.9829   -0.4429  -27.7471 H   0  0  0  0  0  0  0  0  0  0  0  0
   -5.5683   -2.8757  -27.2451 H   0  0  0  0  0  0  0  0  0  0  0  0
   -8.9021   -4.4146  -24.0111 H   0  0  0  0  0  0  0  0  0  0  0  0
   -8.1577   -4.6971  -22.4211 H   0  0  0  0  0  0  0  0  0  0  0  0
   -8.7330    0.0102  -21.8474 H   0  0  0  0  0  0  0  0  0  0  0  0
   -9.3302   -1.1373  -20.6621 H   0  0  0  0  0  0  0  0  0  0  0  0
   -9.6575   -1.4612  -23.4442 H   0  0  0  0  0  0  0  0  0  0  0  0
  -11.1050   -2.3950  -21.6901 H   0  0  0  0  0  0  0  0  0  0  0  0
   -9.8703   -3.5822  -21.2444 H   0  0  0  0  0  0  0  0  0  0  0  0
  -10.6367   -3.6488  -22.8393 H   0  0  0  0  0  0  0  0  0  0  0  0
  1  2  1  0
  2  3  1  0
  3  4  1  0
  4  5  1  0
  5  6  2  0
  6  7  1  0
  7  8  2  0
  8  9  1  0
  9 10  2  0
 10 11  1  0
 11 12  2  0
 12 13  1  0
 13 14  2  0
 13 15  1  0
 12 16  1  0
 11 17  1  0
 10 18  1  0
  8 19  1  0
  6 20  1  0
  4 21  1  0
 21 22  2  0
 21 23  1  0
 23 24  1  6
 24 25  1  0
 25 26  1  0
 26 27  1  0
 27 28  3  0
 26 29  1  0
 26 30  1  0
 25 31  1  0
 31 32  2  0
 31 33  1  0
 33 34  2  0
 34 35  1  0
 35 36  2  0
 36 37  1  0
 36 38  1  0
 38 39  2  0
 38 40  1  0
 35 41  1  0
 34 42  1  0
 24 43  1  0
 24 44  1  0
  3 45  1  0
  3 46  1  0
  2 47  1  6
  1 48  1  0
  1 49  1  0
  1 50  1  0
 23  2  1  0
 39 33  1  0
 14  5  1  0
 39 23  1  0
 14  9  1  0
M  END
>  <cnnaffinities>  (69) 
[6.0317, 6.20242, 5.90548]

>  <score>  (69) 
6.0317

>  <index>  (69) 
71

>  <Smiles>  (69) 
C([C@]1(C(N(c2c(nc(c3c(c(c(c(c23)[H])[H])[H])[H])[H])[H])C(=O)[C@]21C(N(C(C#N)([H])[H])C(=O)c1c(c(c(F)c(c21)[H])[H])[H])([H])[H])([H])[H])[H])([H])([H])[H]

>  <h>  (69) 
<NA>

>  <Training>  (69) 
True

>  <Success>  (69) 
True

>  <enamine_searched>  (69) 
False

>  <enamine_id>  (69) 
nan

$$$$

     RDKit          3D

 41 44  0  0  0  0  0  0  0  0999 V2000
   -5.9726   -3.3692  -21.2297 O   0  0  0  0  0  0  0  0  0  0  0  0
   -6.6739   -2.6667  -21.9343 C   0  0  0  0  0  0  0  0  0  0  0  0
   -7.3980   -1.4575  -21.2834 C   0  0  0  0  0  0  0  0  0  0  0  0
   -6.5783   -0.8275  -20.1772 C   0  0  0  0  0  0  0  0  0  0  0  0
   -6.8727   -1.0465  -18.8553 C   0  0  0  0  0  0  0  0  0  0  0  0
   -6.1840   -0.5466  -17.7937 N   0  0  0  0  0  0  0  0  0  0  0  0
   -5.1564    0.2234  -18.0617 C   0  0  0  0  0  0  0  0  0  0  0  0
   -4.7204    0.5348  -19.3808 C   0  0  0  0  0  0  0  0  0  0  0  0
   -3.5912    1.3622  -19.6216 C   0  0  0  0  0  0  0  0  0  0  0  0
   -3.1953    1.6376  -20.9022 C   0  0  0  0  0  0  0  0  0  0  0  0
   -3.9117    1.0958  -21.9961 C   0  0  0  0  0  0  0  0  0  0  0  0
   -5.0093    0.2941  -21.7929 C   0  0  0  0  0  0  0  0  0  0  0  0
   -5.4455   -0.0066  -20.4716 C   0  0  0  0  0  0  0  0  0  0  0  0
   -5.5435   -0.1046  -22.6566 H   0  0  0  0  0  0  0  0  0  0  0  0
   -3.5882    1.3220  -23.0086 H   0  0  0  0  0  0  0  0  0  0  0  0
   -2.3345    2.2740  -21.0912 H   0  0  0  0  0  0  0  0  0  0  0  0
   -3.0503    1.7761  -18.7737 H   0  0  0  0  0  0  0  0  0  0  0  0
   -4.5992    0.6299  -17.2157 H   0  0  0  0  0  0  0  0  0  0  0  0
   -7.7234   -1.6724  -18.5881 H   0  0  0  0  0  0  0  0  0  0  0  0
   -8.3298   -1.8437  -20.8486 H   0  0  0  0  0  0  0  0  0  0  0  0
   -7.6817   -0.6950  -22.0166 H   0  0  0  0  0  0  0  0  0  0  0  0
   -6.8347   -2.9511  -23.2802 N   0  0  0  0  0  0  0  0  0  0  0  0
   -5.7771   -3.7099  -23.9506 C   0  0  0  0  0  0  0  0  0  0  0  0
   -4.6679   -2.8525  -24.5653 C   0  0  0  0  0  0  0  0  0  0  0  0
   -5.1229   -2.0224  -25.7762 C   0  0  0  0  0  0  0  0  0  0  0  0
   -6.0549   -0.8889  -25.4208 C   0  0  0  0  0  0  0  0  0  0  0  0
   -5.7199    0.7493  -25.8837 S   0  0  0  0  0  0  0  0  0  0  0  0
   -7.1859    1.3124  -25.1778 C   0  0  0  0  0  0  0  0  0  0  0  0
   -7.8878    0.2956  -24.6021 C   0  0  0  0  0  0  0  0  0  0  0  0
   -7.2327   -0.9660  -24.7232 C   0  0  0  0  0  0  0  0  0  0  0  0
   -7.7686   -2.2495  -24.1441 C   0  0  0  0  0  0  0  0  0  0  0  0
   -8.6941   -2.0528  -23.5973 H   0  0  0  0  0  0  0  0  0  0  0  0
   -8.0535   -2.9249  -24.9589 H   0  0  0  0  0  0  0  0  0  0  0  0
   -8.8465    0.4240  -24.0996 H   0  0  0  0  0  0  0  0  0  0  0  0
   -7.4657    2.3549  -25.2102 H   0  0  0  0  0  0  0  0  0  0  0  0
   -5.6284   -2.6875  -26.4928 H   0  0  0  0  0  0  0  0  0  0  0  0
   -4.2484   -1.6273  -26.3014 H   0  0  0  0  0  0  0  0  0  0  0  0
   -3.8349   -3.5005  -24.8724 H   0  0  0  0  0  0  0  0  0  0  0  0
   -4.2673   -2.1821  -23.7976 H   0  0  0  0  0  0  0  0  0  0  0  0
   -6.2409   -4.2978  -24.7487 H   0  0  0  0  0  0  0  0  0  0  0  0
   -5.3596   -4.4155  -23.2334 H   0  0  0  0  0  0  0  0  0  0  0  0
  1  2  2  0
  2  3  1  0
  3  4  1  0
  4  5  2  0
  5  6  1  0
  6  7  2  0
  7  8  1  0
  8  9  2  0
  9 10  1  0
 10 11  2  0
 11 12  1  0
 12 13  2  0
 12 14  1  0
 11 15  1  0
 10 16  1  0
  9 17  1  0
  7 18  1  0
  5 19  1  0
  3 20  1  0
  3 21  1  0
  2 22  1  0
 22 23  1  0
 23 24  1  0
 24 25  1  0
 25 26  1  0
 26 27  1  0
 27 28  1  0
 28 29  2  0
 29 30  1  0
 30 31  1  0
 31 32  1  0
 31 33  1  0
 29 34  1  0
 28 35  1  0
 25 36  1  0
 25 37  1  0
 24 38  1  0
 24 39  1  0
 23 40  1  0
 23 41  1  0
 13  4  1  0
 31 22  1  0
 13  8  1  0
 30 26  2  0
M  END
>  <cnnaffinities>  (70) 
[5.44531, 5.57884, 5.28221, 5.53694]

>  <score>  (70) 
5.44531

>  <index>  (70) 
72

>  <Smiles>  (70) 
O=C(C(c1c(nc(c2c(c(c(c(c12)[H])[H])[H])[H])[H])[H])([H])[H])N1C(C(C(c2sc(c(c2C1([H])[H])[H])[H])([H])[H])([H])[H])([H])[H]

>  <h>  (70) 
<NA>

>  <Training>  (70) 
True

>  <Success>  (70) 
True

>  <enamine_searched>  (70) 
False

>  <enamine_id>  (70) 
nan

$$$$

     RDKit          3D

 50 53  0  0  0  0  0  0  0  0999 V2000
   -5.6008   -3.0304  -21.5759 O   0  0  0  0  0  0  0  0  0  0  0  0
   -6.7575   -2.7534  -21.8605 C   0  0  0  0  0  0  0  0  0  0  0  0
   -7.4148   -1.4791  -21.2700 C   0  0  0  0  0  0  0  0  0  0  0  0
   -6.5812   -0.8302  -20.1858 C   0  0  0  0  0  0  0  0  0  0  0  0
   -6.8738   -1.0457  -18.8672 C   0  0  0  0  0  0  0  0  0  0  0  0
   -6.1842   -0.5512  -17.8033 N   0  0  0  0  0  0  0  0  0  0  0  0
   -5.1598    0.2210  -18.0666 C   0  0  0  0  0  0  0  0  0  0  0  0
   -4.7219    0.5310  -19.3806 C   0  0  0  0  0  0  0  0  0  0  0  0
   -3.5931    1.3570  -19.6220 C   0  0  0  0  0  0  0  0  0  0  0  0
   -3.1891    1.6320  -20.8986 C   0  0  0  0  0  0  0  0  0  0  0  0
   -3.9013    1.0868  -21.9927 C   0  0  0  0  0  0  0  0  0  0  0  0
   -4.9981    0.2878  -21.7861 C   0  0  0  0  0  0  0  0  0  0  0  0
   -5.4454   -0.0136  -20.4759 C   0  0  0  0  0  0  0  0  0  0  0  0
   -5.5258   -0.1319  -22.6374 H   0  0  0  0  0  0  0  0  0  0  0  0
   -3.5728    1.3076  -23.0037 H   0  0  0  0  0  0  0  0  0  0  0  0
   -2.3278    2.2689  -21.0872 H   0  0  0  0  0  0  0  0  0  0  0  0
   -3.0568    1.7734  -18.7694 H   0  0  0  0  0  0  0  0  0  0  0  0
   -4.6054    0.6272  -17.2154 H   0  0  0  0  0  0  0  0  0  0  0  0
   -7.7199   -1.6687  -18.5861 H   0  0  0  0  0  0  0  0  0  0  0  0
   -7.6156   -0.7492  -22.0664 H   0  0  0  0  0  0  0  0  0  0  0  0
   -8.3953   -1.7468  -20.8493 H   0  0  0  0  0  0  0  0  0  0  0  0
   -7.5199   -3.5822  -22.6620 N   0  0  0  0  0  0  0  0  0  0  0  0
   -8.6631   -3.1254  -23.4510 C   0  0  0  0  0  0  0  0  0  0  0  0
   -9.7341   -4.2018  -23.5638 C   0  0  0  0  0  0  0  0  0  0  0  0
   -9.1646   -5.5043  -24.1031 C   0  0  0  0  0  0  0  0  0  0  0  0
   -7.9860   -5.9356  -23.2416 C   0  0  0  0  0  0  0  0  0  0  0  0
   -6.9130   -4.8516  -23.1008 C   0  0  1  0  0  0  0  0  0  0  0  0
   -6.0434   -4.6966  -24.3696 C   0  0  0  0  0  0  0  0  0  0  0  0
   -5.2086   -5.9201  -24.6881 C   0  0  0  0  0  0  0  0  0  0  0  0
   -4.0474   -6.1894  -23.9579 C   0  0  0  0  0  0  0  0  0  0  0  0
   -3.2848   -7.3204  -24.2201 C   0  0  0  0  0  0  0  0  0  0  0  0
   -3.6703   -8.2115  -25.2176 C   0  0  0  0  0  0  0  0  0  0  0  0
   -4.8277   -7.9605  -25.9497 C   0  0  0  0  0  0  0  0  0  0  0  0
   -5.5853   -6.8247  -25.6834 C   0  0  0  0  0  0  0  0  0  0  0  0
   -6.4946   -6.6405  -26.2525 H   0  0  0  0  0  0  0  0  0  0  0  0
   -5.1420   -8.6461  -26.7315 H   0  0  0  0  0  0  0  0  0  0  0  0
   -3.0713   -9.0918  -25.4255 H   0  0  0  0  0  0  0  0  0  0  0  0
   -2.3829   -7.5094  -23.6437 H   0  0  0  0  0  0  0  0  0  0  0  0
   -3.7433   -5.4995  -23.1740 H   0  0  0  0  0  0  0  0  0  0  0  0
   -6.6854   -4.4573  -25.2242 H   0  0  0  0  0  0  0  0  0  0  0  0
   -5.3824   -3.8377  -24.2153 H   0  0  0  0  0  0  0  0  0  0  0  0
   -6.2401   -5.1515  -22.2983 H   0  0  0  0  0  0  0  0  0  0  0  0
   -8.3504   -6.1928  -22.2436 H   0  0  0  0  0  0  0  0  0  0  0  0
   -7.5388   -6.8525  -23.6373 H   0  0  0  0  0  0  0  0  0  0  0  0
   -9.9345   -6.2852  -24.1206 H   0  0  0  0  0  0  0  0  0  0  0  0
   -8.8408   -5.3772  -25.1437 H   0  0  0  0  0  0  0  0  0  0  0  0
  -10.1658   -4.3760  -22.5760 H   0  0  0  0  0  0  0  0  0  0  0  0
  -10.5508   -3.8479  -24.1990 H   0  0  0  0  0  0  0  0  0  0  0  0
   -9.0840   -2.2322  -22.9918 H   0  0  0  0  0  0  0  0  0  0  0  0
   -8.3547   -2.8301  -24.4653 H   0  0  0  0  0  0  0  0  0  0  0  0
  1  2  2  0
  2  3  1  0
  3  4  1  0
  4  5  2  0
  5  6  1  0
  6  7  2  0
  7  8  1  0
  8  9  2  0
  9 10  1  0
 10 11  2  0
 11 12  1  0
 12 13  2  0
 12 14  1  0
 11 15  1  0
 10 16  1  0
  9 17  1  0
  7 18  1  0
  5 19  1  0
  3 20  1  0
  3 21  1  0
  2 22  1  0
 22 23  1  0
 23 24  1  0
 24 25  1  0
 25 26  1  0
 26 27  1  0
 27 28  1  0
 28 29  1  0
 29 30  2  0
 30 31  1  0
 31 32  2  0
 32 33  1  0
 33 34  2  0
 34 35  1  0
 33 36  1  0
 32 37  1  0
 31 38  1  0
 30 39  1  0
 28 40  1  0
 28 41  1  0
 27 42  1  1
 26 43  1  0
 26 44  1  0
 25 45  1  0
 25 46  1  0
 24 47  1  0
 24 48  1  0
 23 49  1  0
 23 50  1  0
 13  4  1  0
 27 22  1  0
 34 29  1  0
 13  8  1  0
M  END
>  <cnnaffinities>  (71) 
[5.84914]

>  <score>  (71) 
5.84914

>  <index>  (71) 
73

>  <Smiles>  (71) 
O=C(C(c1c(nc(c2c(c(c(c(c12)[H])[H])[H])[H])[H])[H])([H])[H])N1C(C(C(C([C@]1(C(c1c(c(c(c(c1[H])[H])[H])[H])[H])([H])[H])[H])([H])[H])([H])[H])([H])[H])([H])[H]

>  <h>  (71) 
<NA>

>  <Training>  (71) 
True

>  <Success>  (71) 
True

>  <enamine_searched>  (71) 
False

>  <enamine_id>  (71) 
nan

$$$$

     RDKit          3D

 43 47  0  0  0  0  0  0  0  0999 V2000
   -9.4060   -0.4892  -20.9659 O   0  0  0  0  0  0  0  0  0  0  0  0
   -8.7282   -1.3878  -21.3781 C   0  0  0  0  0  0  0  0  0  0  0  0
   -9.1300   -2.4646  -22.1161 N   0  0  0  0  0  0  0  0  0  0  0  0
   -8.0342   -3.1544  -22.7445 C   0  0  1  0  0  0  0  0  0  0  0  0
   -8.1034   -4.6949  -22.7181 C   0  0  0  0  0  0  0  0  0  0  0  0
   -8.2243   -4.7241  -24.2762 C   0  0  2  0  0  0  0  0  0  0  0  0
   -7.1752   -5.5219  -24.9849 C   0  0  0  0  0  0  0  0  0  0  0  0
   -5.8192   -5.2764  -24.7392 C   0  0  0  0  0  0  0  0  0  0  0  0
   -4.8280   -6.0090  -25.3816 C   0  0  0  0  0  0  0  0  0  0  0  0
   -5.1771   -7.0086  -26.2880 C   0  0  0  0  0  0  0  0  0  0  0  0
   -6.5166   -7.2659  -26.5467 C   0  0  0  0  0  0  0  0  0  0  0  0
   -7.4966   -6.5304  -25.8925 C   0  0  0  0  0  0  0  0  0  0  0  0
   -9.1652   -6.9155  -26.2500 Cl  0  0  0  0  0  0  0  0  0  0  0  0
   -6.8206   -8.0224  -27.2608 H   0  0  0  0  0  0  0  0  0  0  0  0
   -4.4097   -7.5855  -26.7966 H   0  0  0  0  0  0  0  0  0  0  0  0
   -3.7840   -5.7930  -25.1759 H   0  0  0  0  0  0  0  0  0  0  0  0
   -5.5495   -4.4935  -24.0279 H   0  0  0  0  0  0  0  0  0  0  0  0
   -8.0338   -3.1719  -24.3007 C   0  0  0  0  0  0  0  0  0  0  0  0
   -8.8556   -2.6026  -24.7511 H   0  0  0  0  0  0  0  0  0  0  0  0
   -7.0969   -2.8278  -24.7584 H   0  0  0  0  0  0  0  0  0  0  0  0
   -9.2252   -5.0213  -24.6042 H   0  0  0  0  0  0  0  0  0  0  0  0
   -8.9678   -5.0704  -22.1625 H   0  0  0  0  0  0  0  0  0  0  0  0
   -7.1921   -5.1537  -22.3162 H   0  0  0  0  0  0  0  0  0  0  0  0
   -6.8304   -2.5253  -22.0568 C   0  0  0  0  0  0  0  0  0  0  0  0
   -5.6697   -2.8181  -22.2291 O   0  0  0  0  0  0  0  0  0  0  0  0
   -7.3277   -1.5272  -21.2114 N   0  0  0  0  0  0  0  0  0  0  0  0
   -6.5808   -0.8617  -20.1916 C   0  0  0  0  0  0  0  0  0  0  0  0
   -6.9086   -1.0641  -18.8732 C   0  0  0  0  0  0  0  0  0  0  0  0
   -6.2113   -0.5564  -17.8298 N   0  0  0  0  0  0  0  0  0  0  0  0
   -5.1791    0.2027  -18.0985 C   0  0  0  0  0  0  0  0  0  0  0  0
   -4.7475    0.5251  -19.4124 C   0  0  0  0  0  0  0  0  0  0  0  0
   -3.6177    1.3577  -19.6375 C   0  0  0  0  0  0  0  0  0  0  0  0
   -3.2259    1.6588  -20.9112 C   0  0  0  0  0  0  0  0  0  0  0  0
   -3.9546    1.1438  -22.0074 C   0  0  0  0  0  0  0  0  0  0  0  0
   -5.0495    0.3375  -21.8150 C   0  0  0  0  0  0  0  0  0  0  0  0
   -5.4694   -0.0105  -20.5014 C   0  0  0  0  0  0  0  0  0  0  0  0
   -5.5973   -0.0497  -22.6679 H   0  0  0  0  0  0  0  0  0  0  0  0
   -3.6413    1.3919  -23.0155 H   0  0  0  0  0  0  0  0  0  0  0  0
   -2.3678    2.3026  -21.0911 H   0  0  0  0  0  0  0  0  0  0  0  0
   -3.0851    1.7539  -18.7779 H   0  0  0  0  0  0  0  0  0  0  0  0
   -4.6322    0.6064  -17.2480 H   0  0  0  0  0  0  0  0  0  0  0  0
   -7.7586   -1.6851  -18.6026 H   0  0  0  0  0  0  0  0  0  0  0  0
  -10.0959   -2.5985  -22.3726 H   0  0  0  0  0  0  0  0  0  0  0  0
  1  2  2  0
  2  3  1  0
  4  3  1  6
  4  5  1  0
  5  6  1  0
  6  7  1  0
  7  8  2  0
  8  9  1  0
  9 10  2  0
 10 11  1  0
 11 12  2  0
 12 13  1  0
 11 14  1  0
 10 15  1  0
  9 16  1  0
  8 17  1  0
  6 18  1  0
 18 19  1  0
 18 20  1  0
  6 21  1  1
  5 22  1  0
  5 23  1  0
  4 24  1  0
 24 25  2  0
 24 26  1  0
 26 27  1  0
 27 28  2  0
 28 29  1  0
 29 30  2  0
 30 31  1  0
 31 32  2  0
 32 33  1  0
 33 34  2  0
 34 35  1  0
 35 36  2  0
 35 37  1  0
 34 38  1  0
 33 39  1  0
 32 40  1  0
 30 41  1  0
 28 42  1  0
  3 43  1  0
 26  2  1  0
 36 27  1  0
 18  4  1  0
 36 31  1  0
 12  7  1  0
M  END
>  <cnnaffinities>  (72) 
[5.83506]

>  <score>  (72) 
5.83506

>  <index>  (72) 
74

>  <Smiles>  (72) 
O=C1N([C@]2(C([C@](c3c(c(c(c(c3Cl)[H])[H])[H])[H])(C2([H])[H])[H])([H])[H])C(=O)N1c1c(nc(c2c(c(c(c(c12)[H])[H])[H])[H])[H])[H])[H]

>  <h>  (72) 
<NA>

>  <Training>  (72) 
True

>  <Success>  (72) 
True

>  <enamine_searched>  (72) 
False

>  <enamine_id>  (72) 
nan

$$$$

     RDKit          3D

 66 71  0  0  0  0  0  0  0  0999 V2000
   -5.8040   -0.1897  -29.5400 C   0  0  0  0  0  0  0  0  0  0  0  0
   -5.7211    0.2087  -28.1532 N   0  0  0  0  0  0  0  0  0  0  0  0
   -5.1129   -0.5659  -27.2148 C   0  0  0  0  0  0  0  0  0  0  0  0
   -4.4550   -1.5596  -27.4661 O   0  0  0  0  0  0  0  0  0  0  0  0
   -5.3131   -0.0518  -25.7737 C   0  0  0  0  0  0  0  0  0  0  0  0
   -6.5168   -0.5712  -25.1325 N   0  0  0  0  0  0  0  0  0  0  0  0
   -6.4509   -1.8199  -24.3775 C   0  0  0  0  0  0  0  0  0  0  0  0
   -7.5279   -1.9055  -23.2515 C   0  0  2  0  0  0  0  0  0  0  0  0
   -7.1634   -1.0423  -22.0234 C   0  0  0  0  0  0  0  0  0  0  0  0
   -7.5245    0.0783  -21.7597 O   0  0  0  0  0  0  0  0  0  0  0  0
   -6.3606   -1.8147  -21.1984 N   0  0  0  0  0  0  0  0  0  0  0  0
   -5.7933   -1.2194  -20.0473 C   0  0  0  0  0  0  0  0  0  0  0  0
   -6.2150   -1.5568  -18.7860 C   0  0  0  0  0  0  0  0  0  0  0  0
   -5.8012   -0.9516  -17.6446 N   0  0  0  0  0  0  0  0  0  0  0  0
   -4.9303    0.0244  -17.7591 C   0  0  0  0  0  0  0  0  0  0  0  0
   -4.3796    0.4570  -18.9983 C   0  0  0  0  0  0  0  0  0  0  0  0
   -3.4190    1.5054  -19.0713 C   0  0  0  0  0  0  0  0  0  0  0  0
   -2.9097    1.9008  -20.2787 C   0  0  0  0  0  0  0  0  0  0  0  0
   -3.3227    1.2560  -21.4668 C   0  0  0  0  0  0  0  0  0  0  0  0
   -4.2347    0.2328  -21.4158 C   0  0  0  0  0  0  0  0  0  0  0  0
   -4.8121   -0.1815  -20.1811 C   0  0  0  0  0  0  0  0  0  0  0  0
   -4.5321   -0.2697  -22.3297 H   0  0  0  0  0  0  0  0  0  0  0  0
   -2.9169    1.5759  -22.4234 H   0  0  0  0  0  0  0  0  0  0  0  0
   -2.1885    2.7124  -20.3367 H   0  0  0  0  0  0  0  0  0  0  0  0
   -3.0962    1.9838  -18.1495 H   0  0  0  0  0  0  0  0  0  0  0  0
   -4.6191    0.5161  -16.8374 H   0  0  0  0  0  0  0  0  0  0  0  0
   -6.9584   -2.3438  -18.6707 H   0  0  0  0  0  0  0  0  0  0  0  0
   -6.3468   -3.2269  -21.5730 C   0  0  0  0  0  0  0  0  0  0  0  0
   -7.5236   -3.2936  -22.5562 C   0  0  2  0  0  0  0  0  0  0  0  0
   -7.5917   -4.5193  -23.4707 C   0  0  0  0  0  0  0  0  0  0  0  0
   -7.7600   -5.7696  -22.7494 N   0  0  0  0  0  0  0  0  0  0  0  0
   -6.6495   -6.4591  -22.3020 C   0  0  0  0  0  0  0  0  0  0  0  0
   -5.5201   -6.6530  -23.1236 C   0  0  0  0  0  0  0  0  0  0  0  0
   -4.4578   -7.3159  -22.7059 N   0  0  0  0  0  0  0  0  0  0  0  0
   -4.5047   -7.8176  -21.4704 C   0  0  0  0  0  0  0  0  0  0  0  0
   -5.6148   -7.6463  -20.6716 C   0  0  0  0  0  0  0  0  0  0  0  0
   -6.6927   -6.9755  -21.0788 N   0  0  0  0  0  0  0  0  0  0  0  0
   -5.6587   -8.0786  -19.6758 H   0  0  0  0  0  0  0  0  0  0  0  0
   -3.6282   -8.3524  -21.1184 H   0  0  0  0  0  0  0  0  0  0  0  0
   -5.4972   -6.2866  -24.1472 H   0  0  0  0  0  0  0  0  0  0  0  0
   -8.4767   -5.7379  -22.0340 H   0  0  0  0  0  0  0  0  0  0  0  0
   -8.4264   -4.3923  -24.1695 H   0  0  0  0  0  0  0  0  0  0  0  0
   -6.6820   -4.5931  -24.0710 H   0  0  0  0  0  0  0  0  0  0  0  0
   -8.4307   -3.2960  -21.9468 H   0  0  0  0  0  0  0  0  0  0  0  0
   -5.4081   -3.4998  -22.0818 H   0  0  0  0  0  0  0  0  0  0  0  0
   -6.4715   -3.8639  -20.6897 H   0  0  0  0  0  0  0  0  0  0  0  0
   -8.8581   -1.4841  -23.8073 C   0  0  0  0  0  0  0  0  0  0  0  0
  -10.0578   -1.7929  -23.1526 C   0  0  0  0  0  0  0  0  0  0  0  0
  -11.2729   -1.5308  -23.7627 C   0  0  0  0  0  0  0  0  0  0  0  0
  -12.7260   -2.0238  -22.9291 Cl  0  0  0  0  0  0  0  0  0  0  0  0
  -11.3259   -0.8850  -25.0035 C   0  0  0  0  0  0  0  0  0  0  0  0
  -10.1438   -0.4951  -25.5857 C   0  0  0  0  0  0  0  0  0  0  0  0
   -8.9229   -0.7237  -24.9732 C   0  0  0  0  0  0  0  0  0  0  0  0
   -7.7133   -0.0909  -25.5636 C   0  0  0  0  0  0  0  0  0  0  0  0
   -7.7985    0.8094  -26.4056 O   0  0  0  0  0  0  0  0  0  0  0  0
  -10.1464    0.0282  -26.5250 H   0  0  0  0  0  0  0  0  0  0  0  0
  -12.2357   -0.5887  -25.5057 H   0  0  0  0  0  0  0  0  0  0  0  0
  -10.0558   -2.2237  -22.1587 H   0  0  0  0  0  0  0  0  0  0  0  0
   -5.4488   -1.8986  -23.9445 H   0  0  0  0  0  0  0  0  0  0  0  0
   -6.5855   -2.6605  -25.0729 H   0  0  0  0  0  0  0  0  0  0  0  0
   -4.4471   -0.3512  -25.1804 H   0  0  0  0  0  0  0  0  0  0  0  0
   -5.3704    1.0408  -25.7759 H   0  0  0  0  0  0  0  0  0  0  0  0
   -6.4417    0.8246  -27.8004 H   0  0  0  0  0  0  0  0  0  0  0  0
   -6.4892   -1.0323  -29.6978 H   0  0  0  0  0  0  0  0  0  0  0  0
   -6.1577    0.6715  -30.1129 H   0  0  0  0  0  0  0  0  0  0  0  0
   -4.8176   -0.4770  -29.9101 H   0  0  0  0  0  0  0  0  0  0  0  0
  1  2  1  0
  2  3  1  0
  3  4  2  0
  3  5  1  0
  5  6  1  0
  6  7  1  0
  8  7  1  6
  8  9  1  0
  9 10  2  0
  9 11  1  0
 11 12  1  0
 12 13  2  0
 13 14  1  0
 14 15  2  0
 15 16  1  0
 16 17  2  0
 17 18  1  0
 18 19  2  0
 19 20  1  0
 20 21  2  0
 20 22  1  0
 19 23  1  0
 18 24  1  0
 17 25  1  0
 15 26  1  0
 13 27  1  0
 11 28  1  0
 28 29  1  0
 29 30  1  0
 30 31  1  0
 31 32  1  0
 32 33  2  0
 33 34  1  0
 34 35  2  0
 35 36  1  0
 36 37  2  0
 36 38  1  0
 35 39  1  0
 33 40  1  0
 31 41  1  0
 30 42  1  0
 30 43  1  0
 29 44  1  1
 28 45  1  0
 28 46  1  0
  8 47  1  0
 47 48  2  0
 48 49  1  0
 49 50  1  0
 49 51  2  0
 51 52  1  0
 52 53  2  0
 53 54  1  0
 54 55  2  0
 52 56  1  0
 51 57  1  0
 48 58  1  0
  7 59  1  0
  7 60  1  0
  5 61  1  0
  5 62  1  0
  2 63  1  0
  1 64  1  0
  1 65  1  0
  1 66  1  0
 54  6  1  0
 29  8  1  0
 37 32  1  0
 53 47  1  0
 21 12  1  0
 21 16  1  0
M  END
>  <cnnaffinities>  (73) 
[6.30357]

>  <score>  (73) 
6.30357

>  <index>  (73) 
75

>  <Smiles>  (73) 
C(N(C(=O)C(N1C([C@@]2(C(=O)N(c3c(nc(c4c(c(c(c(c34)[H])[H])[H])[H])[H])[H])C([C@@]2(C(N(c2c(nc(c(n2)[H])[H])[H])[H])([H])[H])[H])([H])[H])c2c(c(Cl)c(c(c2C1=O)[H])[H])[H])([H])[H])([H])[H])[H])([H])([H])[H]

>  <h>  (73) 
<NA>

>  <Training>  (73) 
True

>  <Success>  (73) 
True

>  <enamine_searched>  (73) 
False

>  <enamine_id>  (73) 
nan

$$$$

     RDKit          3D

 66 71  0  0  0  0  0  0  0  0999 V2000
  -10.2374   -3.0125  -22.0747 C   0  0  0  0  0  0  0  0  0  0  0  0
   -9.1612   -2.0575  -22.6264 C   0  0  1  0  0  0  0  0  0  0  0  0
   -8.6963   -1.0901  -21.5153 C   0  0  0  0  0  0  0  0  0  0  0  0
   -7.3286   -1.4691  -21.2233 N   0  0  0  0  0  0  0  0  0  0  0  0
   -6.5637   -0.8636  -20.1929 C   0  0  0  0  0  0  0  0  0  0  0  0
   -6.8969   -1.0614  -18.8757 C   0  0  0  0  0  0  0  0  0  0  0  0
   -6.2131   -0.5509  -17.8250 N   0  0  0  0  0  0  0  0  0  0  0  0
   -5.1757    0.2084  -18.0887 C   0  0  0  0  0  0  0  0  0  0  0  0
   -4.7347    0.5213  -19.4066 C   0  0  0  0  0  0  0  0  0  0  0  0
   -3.6110    1.3614  -19.6346 C   0  0  0  0  0  0  0  0  0  0  0  0
   -3.2258    1.6634  -20.9125 C   0  0  0  0  0  0  0  0  0  0  0  0
   -3.9514    1.1523  -22.0119 C   0  0  0  0  0  0  0  0  0  0  0  0
   -5.0416    0.3403  -21.8203 C   0  0  0  0  0  0  0  0  0  0  0  0
   -5.4495   -0.0150  -20.4996 C   0  0  0  0  0  0  0  0  0  0  0  0
   -5.5962   -0.0399  -22.6776 H   0  0  0  0  0  0  0  0  0  0  0  0
   -3.6355    1.4031  -23.0207 H   0  0  0  0  0  0  0  0  0  0  0  0
   -2.3680    2.3070  -21.0902 H   0  0  0  0  0  0  0  0  0  0  0  0
   -3.0800    1.7602  -18.7746 H   0  0  0  0  0  0  0  0  0  0  0  0
   -4.6303    0.6130  -17.2367 H   0  0  0  0  0  0  0  0  0  0  0  0
   -7.7539   -1.6810  -18.6151 H   0  0  0  0  0  0  0  0  0  0  0  0
   -6.8054   -2.4130  -22.0718 C   0  0  0  0  0  0  0  0  0  0  0  0
   -5.6893   -2.8939  -21.9691 O   0  0  0  0  0  0  0  0  0  0  0  0
   -7.8505   -2.7284  -23.1677 C   0  0  1  0  0  0  0  0  0  0  0  0
   -7.9926   -4.2528  -23.3493 C   0  0  0  0  0  0  0  0  0  0  0  0
   -6.8462   -4.8518  -24.0159 N   0  0  0  0  0  0  0  0  0  0  0  0
   -6.5087   -6.2209  -23.6508 C   0  0  0  0  0  0  0  0  0  0  0  0
   -5.5079   -6.3588  -22.4951 C   0  0  0  0  0  0  0  0  0  0  0  0
   -4.0600   -6.2856  -22.8567 N   0  0  0  0  0  4  0  0  0  0  0  0
   -3.6418   -7.2110  -23.9843 C   0  0  0  0  0  0  0  0  0  0  0  0
   -2.1007   -7.2468  -24.0546 C   0  0  0  0  0  0  0  0  0  0  0  0
   -1.5442   -6.1580  -23.3515 O   0  0  0  0  0  0  0  0  0  0  0  0
   -2.1639   -4.9436  -23.7036 C   0  0  0  0  0  0  0  0  0  0  0  0
   -3.5605   -4.8716  -23.0725 C   0  0  0  0  0  0  0  0  0  0  0  0
   -4.2599   -4.3462  -23.7170 H   0  0  0  0  0  0  0  0  0  0  0  0
   -3.5394   -4.3704  -22.1030 H   0  0  0  0  0  0  0  0  0  0  0  0
   -2.2378   -4.8444  -24.7996 H   0  0  0  0  0  0  0  0  0  0  0  0
   -1.4933   -4.1674  -23.3392 H   0  0  0  0  0  0  0  0  0  0  0  0
   -1.6715   -8.1339  -23.5800 H   0  0  0  0  0  0  0  0  0  0  0  0
   -1.7832   -7.2321  -25.1097 H   0  0  0  0  0  0  0  0  0  0  0  0
   -4.0577   -6.8220  -24.9185 H   0  0  0  0  0  0  0  0  0  0  0  0
   -4.0439   -8.2147  -23.8024 H   0  0  0  0  0  0  0  0  0  0  0  0
   -3.5243   -6.6406  -22.0415 H   0  0  0  0  0  0  0  0  0  0  0  0
   -5.7174   -5.5748  -21.7589 H   0  0  0  0  0  0  0  0  0  0  0  0
   -5.6709   -7.3349  -22.0226 H   0  0  0  0  0  0  0  0  0  0  0  0
   -6.1467   -6.7201  -24.5489 H   0  0  0  0  0  0  0  0  0  0  0  0
   -7.4376   -6.7092  -23.3374 H   0  0  0  0  0  0  0  0  0  0  0  0
   -6.3533   -4.3224  -25.1760 C   0  0  0  0  0  0  0  0  0  0  0  0
   -5.6263   -4.9560  -25.9344 O   0  0  0  0  0  0  0  0  0  0  0  0
   -6.6905   -2.8767  -25.4315 C   0  0  0  0  0  0  0  0  0  0  0  0
   -6.2337   -2.2859  -26.6101 C   0  0  0  0  0  0  0  0  0  0  0  0
   -6.4265   -0.9372  -26.8444 C   0  0  0  0  0  0  0  0  0  0  0  0
   -7.0726   -0.1694  -25.8792 C   0  0  0  0  0  0  0  0  0  0  0  0
   -7.2833    1.5383  -26.1541 Cl  0  0  0  0  0  0  0  0  0  0  0  0
   -7.5420   -0.7382  -24.7084 C   0  0  0  0  0  0  0  0  0  0  0  0
   -7.3791   -2.1142  -24.4807 C   0  0  0  0  0  0  0  0  0  0  0  0
   -8.0214   -0.0873  -23.9827 H   0  0  0  0  0  0  0  0  0  0  0  0
   -6.0706   -0.4648  -27.7516 H   0  0  0  0  0  0  0  0  0  0  0  0
   -5.7082   -2.9192  -27.3158 H   0  0  0  0  0  0  0  0  0  0  0  0
   -8.9206   -4.4509  -23.9126 H   0  0  0  0  0  0  0  0  0  0  0  0
   -8.0616   -4.7163  -22.3634 H   0  0  0  0  0  0  0  0  0  0  0  0
   -9.3234   -1.2208  -20.6365 H   0  0  0  0  0  0  0  0  0  0  0  0
   -8.7590   -0.0310  -21.8068 H   0  0  0  0  0  0  0  0  0  0  0  0
   -9.6359   -1.4996  -23.4440 H   0  0  0  0  0  0  0  0  0  0  0  0
  -11.0802   -2.4360  -21.6749 H   0  0  0  0  0  0  0  0  0  0  0  0
   -9.8541   -3.6397  -21.2605 H   0  0  0  0  0  0  0  0  0  0  0  0
  -10.6415   -3.6684  -22.8513 H   0  0  0  0  0  0  0  0  0  0  0  0
  1  2  1  0
  2  3  1  0
  3  4  1  0
  4  5  1  0
  5  6  2  0
  6  7  1  0
  7  8  2  0
  8  9  1  0
  9 10  2  0
 10 11  1  0
 11 12  2  0
 12 13  1  0
 13 14  2  0
 13 15  1  0
 12 16  1  0
 11 17  1  0
 10 18  1  0
  8 19  1  0
  6 20  1  0
  4 21  1  0
 21 22  2  0
 21 23  1  0
 23 24  1  6
 24 25  1  0
 25 26  1  0
 26 27  1  0
 27 28  1  0
 28 29  1  0
 29 30  1  0
 30 31  1  0
 31 32  1  0
 32 33  1  0
 33 34  1  0
 33 35  1  0
 32 36  1  0
 32 37  1  0
 30 38  1  0
 30 39  1  0
 29 40  1  0
 29 41  1  0
 28 42  1  0
 27 43  1  0
 27 44  1  0
 26 45  1  0
 26 46  1  0
 25 47  1  0
 47 48  2  0
 47 49  1  0
 49 50  2  0
 50 51  1  0
 51 52  2  0
 52 53  1  0
 52 54  1  0
 54 55  2  0
 54 56  1  0
 51 57  1  0
 50 58  1  0
 24 59  1  0
 24 60  1  0
  3 61  1  0
  3 62  1  0
  2 63  1  6
  1 64  1  0
  1 65  1  0
  1 66  1  0
 23  2  1  0
 33 28  1  0
 55 49  1  0
 14  5  1  0
 55 23  1  0
 14  9  1  0
M  CHG  1  28   1
M  END
>  <cnnaffinities>  (74) 
[6.3454]

>  <score>  (74) 
6.3454

>  <index>  (74) 
76

>  <Smiles>  (74) 
C([C@]1(C(N(c2c(nc(c3c(c(c(c(c23)[H])[H])[H])[H])[H])[H])C(=O)[C@]21C(N(C(C([N+]1(C(C(OC(C1([H])[H])([H])[H])([H])[H])([H])[H])[H])([H])[H])([H])[H])C(=O)c1c(c(c(Cl)c(c21)[H])[H])[H])([H])[H])([H])[H])[H])([H])([H])[H]

>  <h>  (74) 
<NA>

>  <Training>  (74) 
True

>  <Success>  (74) 
True

>  <enamine_searched>  (74) 
False

>  <enamine_id>  (74) 
nan

$$$$

     RDKit          3D

 55 60  0  0  0  0  0  0  0  0999 V2000
  -10.2284   -2.9716  -22.0726 C   0  0  0  0  0  0  0  0  0  0  0  0
   -9.1586   -2.0181  -22.6276 C   0  0  1  0  0  0  0  0  0  0  0  0
   -8.6915   -1.0374  -21.5332 C   0  0  0  0  0  0  0  0  0  0  0  0
   -7.3494   -1.4520  -21.2044 N   0  0  0  0  0  0  0  0  0  0  0  0
   -6.5735   -0.8512  -20.1903 C   0  0  0  0  0  0  0  0  0  0  0  0
   -6.9106   -1.0607  -18.8798 C   0  0  0  0  0  0  0  0  0  0  0  0
   -6.2236   -0.5629  -17.8245 N   0  0  0  0  0  0  0  0  0  0  0  0
   -5.1877    0.1962  -18.0940 C   0  0  0  0  0  0  0  0  0  0  0  0
   -4.7442    0.5101  -19.4110 C   0  0  0  0  0  0  0  0  0  0  0  0
   -3.6233    1.3512  -19.6370 C   0  0  0  0  0  0  0  0  0  0  0  0
   -3.2326    1.6611  -20.9090 C   0  0  0  0  0  0  0  0  0  0  0  0
   -3.9479    1.1505  -22.0187 C   0  0  0  0  0  0  0  0  0  0  0  0
   -5.0364    0.3360  -21.8326 C   0  0  0  0  0  0  0  0  0  0  0  0
   -5.4540   -0.0195  -20.5122 C   0  0  0  0  0  0  0  0  0  0  0  0
   -5.5847   -0.0342  -22.7013 H   0  0  0  0  0  0  0  0  0  0  0  0
   -3.6290    1.4122  -23.0248 H   0  0  0  0  0  0  0  0  0  0  0  0
   -2.3736    2.3047  -21.0807 H   0  0  0  0  0  0  0  0  0  0  0  0
   -3.0979    1.7478  -18.7719 H   0  0  0  0  0  0  0  0  0  0  0  0
   -4.6382    0.6102  -17.2477 H   0  0  0  0  0  0  0  0  0  0  0  0
   -7.7702   -1.6897  -18.6437 H   0  0  0  0  0  0  0  0  0  0  0  0
   -6.8269   -2.4062  -22.0385 C   0  0  0  0  0  0  0  0  0  0  0  0
   -5.7404   -2.9229  -21.8931 O   0  0  0  0  0  0  0  0  0  0  0  0
   -7.8546   -2.6845  -23.1523 C   0  0  1  0  0  0  0  0  0  0  0  0
   -7.9680   -4.1979  -23.3476 C   0  0  0  0  0  0  0  0  0  0  0  0
   -6.7225   -4.6991  -23.8904 N   0  0  0  0  0  0  0  0  0  0  0  0
   -6.2625   -5.9915  -23.4289 C   0  0  0  0  0  0  0  0  0  0  0  0
   -7.0925   -7.0943  -24.0278 C   0  0  0  0  0  0  0  0  0  0  0  0
   -7.0613   -7.5755  -25.2936 C   0  0  0  0  0  0  0  0  0  0  0  0
   -8.1939   -8.3103  -25.4901 O   0  0  0  0  0  0  0  0  0  0  0  0
   -8.8439   -8.2546  -24.3125 C   0  0  0  0  0  0  0  0  0  0  0  0
   -8.2499   -7.5664  -23.3978 N   0  0  0  0  0  0  0  0  0  0  0  0
   -9.7820   -8.7977  -24.2587 H   0  0  0  0  0  0  0  0  0  0  0  0
   -6.3541   -7.5335  -26.1148 H   0  0  0  0  0  0  0  0  0  0  0  0
   -5.2091   -6.0576  -23.7087 H   0  0  0  0  0  0  0  0  0  0  0  0
   -6.3321   -5.9725  -22.3347 H   0  0  0  0  0  0  0  0  0  0  0  0
   -6.2524   -4.2403  -25.0890 C   0  0  0  0  0  0  0  0  0  0  0  0
   -5.5382   -4.9054  -25.8277 O   0  0  0  0  0  0  0  0  0  0  0  0
   -6.6337   -2.8343  -25.3894 C   0  0  0  0  0  0  0  0  0  0  0  0
   -6.1757   -2.2896  -26.5867 C   0  0  0  0  0  0  0  0  0  0  0  0
   -6.3984   -0.9544  -26.8598 C   0  0  0  0  0  0  0  0  0  0  0  0
   -7.0785   -0.1896  -25.9153 C   0  0  0  0  0  0  0  0  0  0  0  0
   -7.2763    1.1177  -26.1677 F   0  0  0  0  0  0  0  0  0  0  0  0
   -7.5572   -0.7179  -24.7319 C   0  0  0  0  0  0  0  0  0  0  0  0
   -7.3600   -2.0771  -24.4624 C   0  0  0  0  0  0  0  0  0  0  0  0
   -8.0827   -0.0623  -24.0433 H   0  0  0  0  0  0  0  0  0  0  0  0
   -6.0353   -0.4809  -27.7626 H   0  0  0  0  0  0  0  0  0  0  0  0
   -5.6288   -2.9509  -27.2564 H   0  0  0  0  0  0  0  0  0  0  0  0
   -8.7991   -4.4168  -24.0346 H   0  0  0  0  0  0  0  0  0  0  0  0
   -8.1566   -4.6963  -22.3923 H   0  0  0  0  0  0  0  0  0  0  0  0
   -9.3373   -1.1069  -20.6627 H   0  0  0  0  0  0  0  0  0  0  0  0
   -8.6973    0.0067  -21.8682 H   0  0  0  0  0  0  0  0  0  0  0  0
   -9.6308   -1.4821  -23.4577 H   0  0  0  0  0  0  0  0  0  0  0  0
  -11.0820   -2.3953  -21.6967 H   0  0  0  0  0  0  0  0  0  0  0  0
   -9.8386   -3.5724  -21.2423 H   0  0  0  0  0  0  0  0  0  0  0  0
  -10.6072   -3.6485  -22.8454 H   0  0  0  0  0  0  0  0  0  0  0  0
  1  2  1  0
  2  3  1  0
  3  4  1  0
  4  5  1  0
  5  6  2  0
  6  7  1  0
  7  8  2  0
  8  9  1  0
  9 10  2  0
 10 11  1  0
 11 12  2  0
 12 13  1  0
 13 14  2  0
 13 15  1  0
 12 16  1  0
 11 17  1  0
 10 18  1  0
  8 19  1  0
  6 20  1  0
  4 21  1  0
 21 22  2  0
 21 23  1  0
 23 24  1  6
 24 25  1  0
 25 26  1  0
 26 27  1  0
 27 28  2  0
 28 29  1  0
 29 30  1  0
 30 31  2  0
 30 32  1  0
 28 33  1  0
 26 34  1  0
 26 35  1  0
 25 36  1  0
 36 37  2  0
 36 38  1  0
 38 39  2  0
 39 40  1  0
 40 41  2  0
 41 42  1  0
 41 43  1  0
 43 44  2  0
 43 45  1  0
 40 46  1  0
 39 47  1  0
 24 48  1  0
 24 49  1  0
  3 50  1  0
  3 51  1  0
  2 52  1  6
  1 53  1  0
  1 54  1  0
  1 55  1  0
 23  2  1  0
 31 27  1  0
 44 38  1  0
 14  5  1  0
 44 23  1  0
 14  9  1  0
M  END
>  <cnnaffinities>  (75) 
[6.13935, 6.25816]

>  <score>  (75) 
6.13935

>  <index>  (75) 
77

>  <Smiles>  (75) 
C([C@]1(C(N(c2c(nc(c3c(c(c(c(c23)[H])[H])[H])[H])[H])[H])C(=O)[C@]21C(N(C(c1c(oc(n1)[H])[H])([H])[H])C(=O)c1c(c(c(F)c(c21)[H])[H])[H])([H])[H])([H])[H])[H])([H])([H])[H]

>  <h>  (75) 
<NA>

>  <Training>  (75) 
True

>  <Success>  (75) 
True

>  <enamine_searched>  (75) 
False

>  <enamine_id>  (75) 
nan

$$$$

     RDKit          3D

 56 60  0  0  0  0  0  0  0  0999 V2000
   -6.2113   -8.9517  -22.5420 C   0  0  0  0  0  0  0  0  0  0  0  0
   -7.1479   -7.8594  -22.3458 N   0  0  0  0  0  0  0  0  0  0  0  0
   -8.2257   -7.7013  -23.1669 C   0  0  0  0  0  0  0  0  0  0  0  0
   -8.5818   -8.5691  -23.9391 O   0  0  0  0  0  0  0  0  0  0  0  0
   -8.9897   -6.3852  -23.0459 C   0  0  0  0  0  0  0  0  0  0  0  0
   -8.3596   -5.2399  -23.6635 N   0  0  0  0  0  0  0  0  0  0  0  0
   -7.4864   -4.4313  -22.8428 C   0  0  0  0  0  0  0  0  0  0  0  0
   -7.6951   -2.9137  -23.0494 C   0  0  2  0  0  0  0  0  0  0  0  0
   -6.6524   -2.2624  -22.1492 C   0  0  0  0  0  0  0  0  0  0  0  0
   -5.4743   -2.5574  -22.0730 O   0  0  0  0  0  0  0  0  0  0  0  0
   -7.2801   -1.3562  -21.3331 N   0  0  0  0  0  0  0  0  0  0  0  0
   -6.5657   -0.7780  -20.2651 C   0  0  0  0  0  0  0  0  0  0  0  0
   -6.9350   -1.0227  -18.9668 C   0  0  0  0  0  0  0  0  0  0  0  0
   -6.2677   -0.5571  -17.8858 N   0  0  0  0  0  0  0  0  0  0  0  0
   -5.2173    0.1992  -18.1105 C   0  0  0  0  0  0  0  0  0  0  0  0
   -4.7364    0.5358  -19.4092 C   0  0  0  0  0  0  0  0  0  0  0  0
   -3.5982    1.3640  -19.6017 C   0  0  0  0  0  0  0  0  0  0  0  0
   -3.1677    1.6776  -20.8634 C   0  0  0  0  0  0  0  0  0  0  0  0
   -3.8487    1.1719  -21.9927 C   0  0  0  0  0  0  0  0  0  0  0  0
   -4.9476    0.3694  -21.8324 C   0  0  0  0  0  0  0  0  0  0  0  0
   -5.4219    0.0309  -20.5299 C   0  0  0  0  0  0  0  0  0  0  0  0
   -5.4518   -0.0189  -22.7100 H   0  0  0  0  0  0  0  0  0  0  0  0
   -3.4999    1.4188  -22.9917 H   0  0  0  0  0  0  0  0  0  0  0  0
   -2.3074    2.3250  -21.0082 H   0  0  0  0  0  0  0  0  0  0  0  0
   -3.0902    1.7535  -18.7242 H   0  0  0  0  0  0  0  0  0  0  0  0
   -4.6893    0.5822  -17.2378 H   0  0  0  0  0  0  0  0  0  0  0  0
   -7.7910   -1.6637  -18.7602 H   0  0  0  0  0  0  0  0  0  0  0  0
   -8.6301   -1.0448  -21.7625 C   0  0  0  0  0  0  0  0  0  0  0  0
   -9.0616   -2.3082  -22.5346 C   0  0  2  0  0  0  0  0  0  0  0  0
   -9.9438   -3.2609  -21.7296 C   0  0  0  0  0  0  0  0  0  0  0  0
   -9.5200   -3.4732  -20.7457 H   0  0  0  0  0  0  0  0  0  0  0  0
  -10.9426   -2.8337  -21.5920 H   0  0  0  0  0  0  0  0  0  0  0  0
  -10.0573   -4.1965  -22.2825 H   0  0  0  0  0  0  0  0  0  0  0  0
   -9.6598   -2.0073  -23.4020 H   0  0  0  0  0  0  0  0  0  0  0  0
   -8.6142   -0.1663  -22.4294 H   0  0  0  0  0  0  0  0  0  0  0  0
   -9.2728   -0.8171  -20.9105 H   0  0  0  0  0  0  0  0  0  0  0  0
   -7.5927   -2.6348  -24.5408 C   0  0  0  0  0  0  0  0  0  0  0  0
   -7.2279   -1.3776  -25.0443 C   0  0  0  0  0  0  0  0  0  0  0  0
   -7.4707   -1.0677  -26.3781 C   0  0  0  0  0  0  0  0  0  0  0  0
   -7.1096    0.5245  -26.9956 Cl  0  0  0  0  0  0  0  0  0  0  0  0
   -8.0768   -1.9832  -27.2364 C   0  0  0  0  0  0  0  0  0  0  0  0
   -8.4256   -3.2253  -26.7394 C   0  0  0  0  0  0  0  0  0  0  0  0
   -8.1793   -3.5638  -25.4121 C   0  0  0  0  0  0  0  0  0  0  0  0
   -8.7177   -4.8854  -24.9376 C   0  0  0  0  0  0  0  0  0  0  0  0
   -9.4462   -5.5833  -25.6298 O   0  0  0  0  0  0  0  0  0  0  0  0
   -8.9389   -3.9554  -27.3546 H   0  0  0  0  0  0  0  0  0  0  0  0
   -8.3032   -1.7012  -28.2606 H   0  0  0  0  0  0  0  0  0  0  0  0
   -6.8173   -0.6140  -24.3876 H   0  0  0  0  0  0  0  0  0  0  0  0
   -6.4342   -4.6487  -23.0595 H   0  0  0  0  0  0  0  0  0  0  0  0
   -7.6423   -4.6570  -21.7831 H   0  0  0  0  0  0  0  0  0  0  0  0
   -9.1150   -6.1475  -21.9831 H   0  0  0  0  0  0  0  0  0  0  0  0
   -9.9519   -6.5504  -23.5284 H   0  0  0  0  0  0  0  0  0  0  0  0
   -6.8500   -7.1282  -21.7175 H   0  0  0  0  0  0  0  0  0  0  0  0
   -5.6536   -8.8592  -23.4849 H   0  0  0  0  0  0  0  0  0  0  0  0
   -5.5014   -8.8856  -21.7168 H   0  0  0  0  0  0  0  0  0  0  0  0
   -6.7078   -9.9309  -22.5185 H   0  0  0  0  0  0  0  0  0  0  0  0
  1  2  1  0
  2  3  1  0
  3  4  2  0
  3  5  1  0
  5  6  1  0
  6  7  1  0
  8  7  1  6
  8  9  1  0
  9 10  2  0
  9 11  1  0
 11 12  1  0
 12 13  2  0
 13 14  1  0
 14 15  2  0
 15 16  1  0
 16 17  2  0
 17 18  1  0
 18 19  2  0
 19 20  1  0
 20 21  2  0
 20 22  1  0
 19 23  1  0
 18 24  1  0
 17 25  1  0
 15 26  1  0
 13 27  1  0
 11 28  1  0
 28 29  1  0
 29 30  1  0
 30 31  1  0
 30 32  1  0
 30 33  1  0
 29 34  1  6
 28 35  1  0
 28 36  1  0
  8 37  1  0
 37 38  2  0
 38 39  1  0
 39 40  1  0
 39 41  2  0
 41 42  1  0
 42 43  2  0
 43 44  1  0
 44 45  2  0
 42 46  1  0
 41 47  1  0
 38 48  1  0
  7 49  1  0
  7 50  1  0
  5 51  1  0
  5 52  1  0
  2 53  1  0
  1 54  1  0
  1 55  1  0
  1 56  1  0
 44  6  1  0
 29  8  1  0
 43 37  1  0
 21 12  1  0
 21 16  1  0
M  END
>  <cnnaffinities>  (76) 
[6.4716]

>  <score>  (76) 
6.4716

>  <index>  (76) 
78

>  <Smiles>  (76) 
C(N(C(=O)C(N1C([C@@]2(C(=O)N(c3c(nc(c4c(c(c(c(c34)[H])[H])[H])[H])[H])[H])C([C@@]2(C([H])([H])[H])[H])([H])[H])c2c(c(Cl)c(c(c2C1=O)[H])[H])[H])([H])[H])([H])[H])[H])([H])([H])[H]

>  <h>  (76) 
<NA>

>  <Training>  (76) 
True

>  <Success>  (76) 
True

>  <enamine_searched>  (76) 
False

>  <enamine_id>  (76) 
nan

$$$$

     RDKit          3D

 45 49  0  0  0  0  0  0  0  0999 V2000
  -10.0577   -0.9931  -23.7363 C   0  0  0  0  0  0  0  0  0  0  0  0
   -9.1342   -1.4363  -22.7129 N   0  0  0  0  0  0  0  0  0  0  0  0
   -8.3126   -0.5589  -22.0609 C   0  0  0  0  0  0  0  0  0  0  0  0
   -8.2755    0.6450  -22.1953 O   0  0  0  0  0  0  0  0  0  0  0  0
   -7.5059   -1.3350  -21.2092 N   0  0  0  0  0  0  0  0  0  0  0  0
   -6.6500   -0.8018  -20.2083 C   0  0  0  0  0  0  0  0  0  0  0  0
   -6.9301   -1.0769  -18.8950 C   0  0  0  0  0  0  0  0  0  0  0  0
   -6.2330   -0.5887  -17.8407 N   0  0  0  0  0  0  0  0  0  0  0  0
   -5.2130    0.1886  -18.1085 C   0  0  0  0  0  0  0  0  0  0  0  0
   -4.7848    0.5124  -19.4256 C   0  0  0  0  0  0  0  0  0  0  0  0
   -3.6452    1.3266  -19.6435 C   0  0  0  0  0  0  0  0  0  0  0  0
   -3.2174    1.5903  -20.9126 C   0  0  0  0  0  0  0  0  0  0  0  0
   -3.9043    1.0496  -22.0207 C   0  0  0  0  0  0  0  0  0  0  0  0
   -5.0199    0.2683  -21.8412 C   0  0  0  0  0  0  0  0  0  0  0  0
   -5.5034   -0.0056  -20.5278 C   0  0  0  0  0  0  0  0  0  0  0  0
   -5.5324   -0.1384  -22.7085 H   0  0  0  0  0  0  0  0  0  0  0  0
   -3.5411    1.2599  -23.0229 H   0  0  0  0  0  0  0  0  0  0  0  0
   -2.3518    2.2241  -21.0782 H   0  0  0  0  0  0  0  0  0  0  0  0
   -3.1341    1.7281  -18.7741 H   0  0  0  0  0  0  0  0  0  0  0  0
   -4.6488    0.5954  -17.2665 H   0  0  0  0  0  0  0  0  0  0  0  0
   -7.7726   -1.7189  -18.6469 H   0  0  0  0  0  0  0  0  0  0  0  0
   -7.7339   -2.6992  -21.3907 C   0  0  0  0  0  0  0  0  0  0  0  0
   -7.0467   -3.5980  -20.9663 O   0  0  0  0  0  0  0  0  0  0  0  0
   -8.9304   -2.8090  -22.3172 C   0  0  0  0  0  0  0  0  0  0  0  0
   -8.7676   -3.8915  -23.4004 C   0  0  0  0  0  0  0  0  0  0  0  0
  -10.0202   -4.5485  -22.9837 N   0  0  0  0  0  0  0  0  0  0  0  0
  -11.2266   -4.6703  -24.1543 S   0  0  0  0  0  0  0  0  0  0  0  0
  -10.9957   -3.7003  -25.2155 O   0  0  0  0  0  0  0  0  0  0  0  0
  -12.4901   -4.6898  -23.4479 O   0  0  0  0  0  0  0  0  0  0  0  0
  -10.9152   -6.2619  -24.8734 C   0  0  0  0  0  0  0  0  0  0  0  0
   -9.5794   -6.5931  -25.4942 C   0  0  0  0  0  0  0  0  0  0  0  0
  -10.0415   -7.3165  -24.2813 C   0  0  0  0  0  0  0  0  0  0  0  0
   -9.5417   -7.1057  -23.3432 H   0  0  0  0  0  0  0  0  0  0  0  0
  -10.3979   -8.3288  -24.3932 H   0  0  0  0  0  0  0  0  0  0  0  0
   -9.6395   -7.0760  -26.4653 H   0  0  0  0  0  0  0  0  0  0  0  0
   -8.7582   -5.8872  -25.3701 H   0  0  0  0  0  0  0  0  0  0  0  0
  -11.7921   -6.6010  -25.4164 H   0  0  0  0  0  0  0  0  0  0  0  0
  -10.1902   -3.5925  -21.8417 C   0  0  0  0  0  0  0  0  0  0  0  0
  -11.1269   -3.0243  -21.8307 H   0  0  0  0  0  0  0  0  0  0  0  0
  -10.0552   -4.1083  -20.8901 H   0  0  0  0  0  0  0  0  0  0  0  0
   -8.7628   -3.5194  -24.4254 H   0  0  0  0  0  0  0  0  0  0  0  0
   -7.9202   -4.5488  -23.1991 H   0  0  0  0  0  0  0  0  0  0  0  0
  -11.0712   -1.3531  -23.5310 H   0  0  0  0  0  0  0  0  0  0  0  0
  -10.0468    0.0977  -23.7172 H   0  0  0  0  0  0  0  0  0  0  0  0
   -9.7427   -1.3428  -24.7251 H   0  0  0  0  0  0  0  0  0  0  0  0
  1  2  1  0
  2  3  1  0
  3  4  2  0
  3  5  1  0
  5  6  1  0
  6  7  2  0
  7  8  1  0
  8  9  2  0
  9 10  1  0
 10 11  2  0
 11 12  1  0
 12 13  2  0
 13 14  1  0
 14 15  2  0
 14 16  1  0
 13 17  1  0
 12 18  1  0
 11 19  1  0
  9 20  1  0
  7 21  1  0
  5 22  1  0
 22 23  2  0
 22 24  1  0
 24 25  1  0
 25 26  1  0
 26 27  1  0
 27 28  2  0
 27 29  2  0
 27 30  1  0
 30 31  1  0
 31 32  1  0
 32 33  1  0
 32 34  1  0
 31 35  1  0
 31 36  1  0
 30 37  1  0
 26 38  1  0
 38 39  1  0
 38 40  1  0
 25 41  1  0
 25 42  1  0
  1 43  1  0
  1 44  1  0
  1 45  1  0
 24  2  1  0
 32 30  1  0
 15  6  1  0
 38 24  1  0
 15 10  1  0
M  END
>  <cnnaffinities>  (77) 
[5.61603, 5.61246, 5.59442]

>  <score>  (77) 
5.61603

>  <index>  (77) 
79

>  <Smiles>  (77) 
C(N1C(=O)N(c2c(nc(c3c(c(c(c(c23)[H])[H])[H])[H])[H])[H])C(=O)C21C(N(S(=O)(=O)C1(C(C1([H])[H])([H])[H])[H])C2([H])[H])([H])[H])([H])([H])[H]

>  <h>  (77) 
<NA>

>  <Training>  (77) 
True

>  <Success>  (77) 
True

>  <enamine_searched>  (77) 
False

>  <enamine_id>  (77) 
nan

$$$$

     RDKit          3D

 60 65  0  0  0  0  0  0  0  0999 V2000
   -2.6932   -6.7944  -22.7282 C   0  0  0  0  0  0  0  0  0  0  0  0
   -3.9600   -6.2006  -22.2846 N   0  0  0  0  0  0  0  0  0  0  0  0
   -5.0050   -7.0215  -22.0549 C   0  0  0  0  0  0  0  0  0  0  0  0
   -4.9526   -8.2163  -22.0979 O   0  0  0  0  0  0  0  0  0  0  0  0
   -6.6173   -6.0128  -21.4544 C   0  0  0  0  0  0  0  0  0  0  0  0
   -7.4202   -5.4618  -22.5527 N   0  0  0  0  0  0  0  0  0  0  0  0
   -8.4248   -4.4289  -22.3480 C   0  0  0  0  0  0  0  0  0  0  0  0
   -7.9825   -3.0465  -22.8696 C   0  0  2  0  0  0  0  0  0  0  0  0
   -6.8298   -2.4870  -22.0129 C   0  0  0  0  0  0  0  0  0  0  0  0
   -5.6713   -2.8549  -22.0364 O   0  0  0  0  0  0  0  0  0  0  0  0
   -7.3177   -1.4708  -21.2197 N   0  0  0  0  0  0  0  0  0  0  0  0
   -6.5571   -0.8664  -20.1956 C   0  0  0  0  0  0  0  0  0  0  0  0
   -6.9005   -1.0673  -18.8831 C   0  0  0  0  0  0  0  0  0  0  0  0
   -6.2248   -0.5631  -17.8236 N   0  0  0  0  0  0  0  0  0  0  0  0
   -5.1892    0.1996  -18.0797 C   0  0  0  0  0  0  0  0  0  0  0  0
   -4.7379    0.5121  -19.3949 C   0  0  0  0  0  0  0  0  0  0  0  0
   -3.6135    1.3523  -19.6175 C   0  0  0  0  0  0  0  0  0  0  0  0
   -3.2183    1.6558  -20.8914 C   0  0  0  0  0  0  0  0  0  0  0  0
   -3.9273    1.1409  -22.0003 C   0  0  0  0  0  0  0  0  0  0  0  0
   -5.0153    0.3257  -21.8118 C   0  0  0  0  0  0  0  0  0  0  0  0
   -5.4395   -0.0225  -20.4969 C   0  0  0  0  0  0  0  0  0  0  0  0
   -5.5593   -0.0670  -22.6653 H   0  0  0  0  0  0  0  0  0  0  0  0
   -3.6081    1.3981  -23.0070 H   0  0  0  0  0  0  0  0  0  0  0  0
   -2.3640    2.3049  -21.0623 H   0  0  0  0  0  0  0  0  0  0  0  0
   -3.0896    1.7556  -18.7548 H   0  0  0  0  0  0  0  0  0  0  0  0
   -4.6498    0.6123  -17.2267 H   0  0  0  0  0  0  0  0  0  0  0  0
   -7.7497   -1.7050  -18.6423 H   0  0  0  0  0  0  0  0  0  0  0  0
   -8.7620   -1.3394  -21.2997 C   0  0  0  0  0  0  0  0  0  0  0  0
   -9.1071   -1.9941  -22.6458 C   0  0  2  0  0  0  0  0  0  0  0  0
  -10.5440   -2.5127  -22.6819 C   0  0  0  0  0  0  0  0  0  0  0  0
  -10.7421   -3.1923  -21.8444 H   0  0  0  0  0  0  0  0  0  0  0  0
  -11.2595   -1.6899  -22.6019 H   0  0  0  0  0  0  0  0  0  0  0  0
  -10.7553   -3.0558  -23.6093 H   0  0  0  0  0  0  0  0  0  0  0  0
   -8.9961   -1.2307  -23.4185 H   0  0  0  0  0  0  0  0  0  0  0  0
   -9.0535   -0.2861  -21.2566 H   0  0  0  0  0  0  0  0  0  0  0  0
   -9.2622   -1.8717  -20.4784 H   0  0  0  0  0  0  0  0  0  0  0  0
   -7.4897   -3.2392  -24.2879 C   0  0  0  0  0  0  0  0  0  0  0  0
   -7.3675   -2.1329  -25.1355 C   0  0  0  0  0  0  0  0  0  0  0  0
   -6.9296   -2.2994  -26.4337 C   0  0  0  0  0  0  0  0  0  0  0  0
   -6.8244   -0.9054  -27.4730 Cl  0  0  0  0  0  0  0  0  0  0  0  0
   -6.5749   -3.5547  -26.9256 C   0  0  0  0  0  0  0  0  0  0  0  0
   -6.6257   -4.6404  -26.0732 C   0  0  0  0  0  0  0  0  0  0  0  0
   -7.0475   -4.4926  -24.7432 C   0  0  0  0  0  0  0  0  0  0  0  0
   -6.9372   -5.6648  -23.8119 C   0  0  0  0  0  0  0  0  0  0  0  0
   -6.4263   -6.7245  -24.1539 O   0  0  0  0  0  0  0  0  0  0  0  0
   -6.3255   -5.6233  -26.4237 H   0  0  0  0  0  0  0  0  0  0  0  0
   -6.2493   -3.6552  -27.9555 H   0  0  0  0  0  0  0  0  0  0  0  0
   -7.6043   -1.1332  -24.7891 H   0  0  0  0  0  0  0  0  0  0  0  0
   -9.3579   -4.7291  -22.8510 H   0  0  0  0  0  0  0  0  0  0  0  0
   -8.6164   -4.3781  -21.2769 H   0  0  0  0  0  0  0  0  0  0  0  0
   -6.9099   -6.2801  -21.3095 C   0  0  0  0  0  0  0  0  0  0  0  0
   -6.0061   -5.3417  -20.3209 C   0  0  0  0  0  0  0  0  0  0  0  0
   -5.5303   -6.0026  -19.6387 H   0  0  0  0  0  0  0  0  0  0  0  0
   -6.5896   -4.5039  -20.0122 H   0  0  0  0  0  0  0  0  0  0  0  0
   -7.8526   -6.4676  -20.7771 H   0  0  0  0  0  0  0  0  0  0  0  0
   -7.2049   -7.3763  -21.5462 H   0  0  0  0  0  0  0  0  0  0  0  0
   -4.0543   -5.1960  -22.3603 H   0  0  0  0  0  0  0  0  0  0  0  0
   -2.3505   -7.5371  -22.0037 H   0  0  0  0  0  0  0  0  0  0  0  0
   -2.8202   -7.3137  -23.6822 H   0  0  0  0  0  0  0  0  0  0  0  0
   -1.9381   -6.0135  -22.8287 H   0  0  0  0  0  0  0  0  0  0  0  0
  1  2  1  0
  2  3  1  0
  3  4  2  0
  3  5  1  0
  5  6  1  0
  6  7  1  0
  8  7  1  1
  8  9  1  0
  9 10  2  0
  9 11  1  0
 11 12  1  0
 12 13  2  0
 13 14  1  0
 14 15  2  0
 15 16  1  0
 16 17  2  0
 17 18  1  0
 18 19  2  0
 19 20  1  0
 20 21  2  0
 20 22  1  0
 19 23  1  0
 18 24  1  0
 17 25  1  0
 15 26  1  0
 13 27  1  0
 11 28  1  0
 28 29  1  0
 29 30  1  0
 30 31  1  0
 30 32  1  0
 30 33  1  0
 29 34  1  6
 28 35  1  0
 28 36  1  0
  8 37  1  0
 37 38  2  0
 38 39  1  0
 39 40  1  0
 39 41  2  0
 41 42  1  0
 42 43  2  0
 43 44  1  0
 44 45  2  0
 42 46  1  0
 41 47  1  0
 38 48  1  0
  7 49  1  0
  7 50  1  0
  5 51  1  0
 51 52  1  0
 52 53  1  0
 52 54  1  0
 51 55  1  0
 51 56  1  0
  2 57  1  0
  1 58  1  0
  1 59  1  0
  1 60  1  0
 52  5  1  0
 44  6  1  0
 29  8  1  0
 43 37  1  0
 21 12  1  0
 21 16  1  0
M  END
>  <cnnaffinities>  (78) 
[5.489]

>  <score>  (78) 
5.489

>  <index>  (78) 
80

>  <Smiles>  (78) 
C(N(C(=O)C1(N2C([C@@]3(C(=O)N(c4c(nc(c5c(c(c(c(c45)[H])[H])[H])[H])[H])[H])C([C@@]3(C([H])([H])[H])[H])([H])[H])c3c(c(Cl)c(c(c3C2=O)[H])[H])[H])([H])[H])C(C1([H])[H])([H])[H])[H])([H])([H])[H]

>  <h>  (78) 
<NA>

>  <Training>  (78) 
True

>  <Success>  (78) 
True

>  <enamine_searched>  (78) 
False

>  <enamine_id>  (78) 
nan

$$$$

     RDKit          3D

 36 38  0  0  0  0  0  0  0  0999 V2000
   -5.9638   -3.3826  -21.2458 O   0  0  0  0  0  0  0  0  0  0  0  0
   -6.6692   -2.6708  -21.9341 C   0  0  0  0  0  0  0  0  0  0  0  0
   -7.3903   -1.4616  -21.2874 C   0  0  0  0  0  0  0  0  0  0  0  0
   -6.5733   -0.8292  -20.1832 C   0  0  0  0  0  0  0  0  0  0  0  0
   -6.8718   -1.0483  -18.8632 C   0  0  0  0  0  0  0  0  0  0  0  0
   -6.1845   -0.5491  -17.7995 N   0  0  0  0  0  0  0  0  0  0  0  0
   -5.1575    0.2215  -18.0637 C   0  0  0  0  0  0  0  0  0  0  0  0
   -4.7213    0.5351  -19.3788 C   0  0  0  0  0  0  0  0  0  0  0  0
   -3.5930    1.3602  -19.6206 C   0  0  0  0  0  0  0  0  0  0  0  0
   -3.1934    1.6376  -20.9002 C   0  0  0  0  0  0  0  0  0  0  0  0
   -3.9079    1.0962  -21.9930 C   0  0  0  0  0  0  0  0  0  0  0  0
   -5.0032    0.2959  -21.7853 C   0  0  0  0  0  0  0  0  0  0  0  0
   -5.4443   -0.0058  -20.4714 C   0  0  0  0  0  0  0  0  0  0  0  0
   -5.5350   -0.1129  -22.6390 H   0  0  0  0  0  0  0  0  0  0  0  0
   -3.5868    1.3209  -23.0051 H   0  0  0  0  0  0  0  0  0  0  0  0
   -2.3339    2.2751  -21.0894 H   0  0  0  0  0  0  0  0  0  0  0  0
   -3.0558    1.7740  -18.7707 H   0  0  0  0  0  0  0  0  0  0  0  0
   -4.6042    0.6282  -17.2147 H   0  0  0  0  0  0  0  0  0  0  0  0
   -7.7216   -1.6709  -18.5886 H   0  0  0  0  0  0  0  0  0  0  0  0
   -7.6807   -0.7058  -22.0248 H   0  0  0  0  0  0  0  0  0  0  0  0
   -8.3272   -1.8370  -20.8516 H   0  0  0  0  0  0  0  0  0  0  0  0
   -6.8177   -2.9335  -23.2888 N   0  0  0  0  0  0  0  0  0  0  0  0
   -6.4336   -4.2692  -23.7401 C   0  0  0  0  0  0  0  0  0  0  0  0
   -7.4889   -5.3364  -23.5910 C   0  0  0  0  0  0  0  0  0  0  0  0
   -8.8169   -5.1857  -23.5222 C   0  0  0  0  0  0  0  0  0  0  0  0
   -9.6371   -3.9559  -23.5549 C   0  0  0  0  0  0  0  0  0  0  0  0
   -9.2451   -2.7026  -23.7983 C   0  0  0  0  0  0  0  0  0  0  0  0
   -7.8314   -2.2951  -24.1151 C   0  0  0  0  0  0  0  0  0  0  0  0
   -7.7109   -1.2089  -24.0773 H   0  0  0  0  0  0  0  0  0  0  0  0
   -7.5965   -2.5802  -25.1469 H   0  0  0  0  0  0  0  0  0  0  0  0
   -9.9872   -1.9047  -23.7706 H   0  0  0  0  0  0  0  0  0  0  0  0
  -10.6959   -4.1280  -23.3744 H   0  0  0  0  0  0  0  0  0  0  0  0
   -9.4082   -6.0960  -23.4319 H   0  0  0  0  0  0  0  0  0  0  0  0
   -7.0957   -6.3547  -23.5426 H   0  0  0  0  0  0  0  0  0  0  0  0
   -5.5192   -4.5679  -23.2211 H   0  0  0  0  0  0  0  0  0  0  0  0
   -6.1724   -4.1829  -24.8013 H   0  0  0  0  0  0  0  0  0  0  0  0
  1  2  2  0
  2  3  1  0
  3  4  1  0
  4  5  2  0
  5  6  1  0
  6  7  2  0
  7  8  1  0
  8  9  2  0
  9 10  1  0
 10 11  2  0
 11 12  1  0
 12 13  2  0
 12 14  1  0
 11 15  1  0
 10 16  1  0
  9 17  1  0
  7 18  1  0
  5 19  1  0
  3 20  1  0
  3 21  1  0
  2 22  1  0
 22 23  1  0
 23 24  1  0
 24 25  2  0
 25 26  1  0
 26 27  2  0
 27 28  1  0
 28 29  1  0
 28 30  1  0
 27 31  1  0
 26 32  1  0
 25 33  1  0
 24 34  1  0
 23 35  1  0
 23 36  1  0
 13  4  1  0
 28 22  1  0
 13  8  1  0
M  END
>  <cnnaffinities>  (79) 
[5.26036, 5.25983, 4.70293, 4.70162, 4.88749, 5.0776, 5.07761]

>  <score>  (79) 
5.26036

>  <index>  (79) 
81

>  <Smiles>  (79) 
O=C(C(c1c(nc(c2c(c(c(c(c12)[H])[H])[H])[H])[H])[H])([H])[H])N1C(C(=C(C(=C(C1([H])[H])[H])[H])[H])[H])([H])[H]

>  <h>  (79) 
<NA>

>  <Training>  (79) 
True

>  <Success>  (79) 
True

>  <enamine_searched>  (79) 
False

>  <enamine_id>  (79) 
nan

$$$$

     RDKit          3D

 54 57  0  0  0  0  0  0  0  0999 V2000
   -9.3967    1.4537  -24.5488 C   0  0  0  0  0  0  0  0  0  0  0  0
   -8.8717    0.1559  -24.4014 O   0  0  0  0  0  0  0  0  0  0  0  0
   -7.6019   -0.0659  -24.8277 C   0  0  0  0  0  0  0  0  0  0  0  0
   -6.7943    0.9298  -25.3826 C   0  0  0  0  0  0  0  0  0  0  0  0
   -5.4896    0.6245  -25.7606 C   0  0  0  0  0  0  0  0  0  0  0  0
   -5.0049   -0.6674  -25.6027 C   0  0  0  0  0  0  0  0  0  0  0  0
   -5.8228   -1.6481  -25.0495 C   0  0  0  0  0  0  0  0  0  0  0  0
   -7.1159   -1.3688  -24.6387 C   0  0  0  0  0  0  0  0  0  0  0  0
   -8.0004   -2.4613  -24.0371 C   0  0  1  0  0  0  0  0  0  0  0  0
   -8.5385   -3.3677  -25.1538 C   0  0  0  0  0  0  0  0  0  0  0  0
   -9.2450   -4.6014  -24.5872 C   0  0  1  0  0  0  0  0  0  0  0  0
   -9.8856   -5.4481  -25.6939 C   0  0  0  0  0  0  0  0  0  0  0  0
  -10.6214   -4.8683  -26.2631 H   0  0  0  0  0  0  0  0  0  0  0  0
   -9.1279   -5.8117  -26.4014 H   0  0  0  0  0  0  0  0  0  0  0  0
  -10.3980   -6.3228  -25.2768 H   0  0  0  0  0  0  0  0  0  0  0  0
   -8.2703   -5.4354  -23.7250 C   0  0  0  0  0  0  0  0  0  0  0  0
   -6.9990   -4.6601  -23.3524 C   0  0  0  0  0  0  0  0  0  0  0  0
   -7.3040   -3.2669  -23.0298 N   0  0  0  0  0  0  0  0  0  0  0  0
   -6.7431   -2.7373  -21.8885 C   0  0  0  0  0  0  0  0  0  0  0  0
   -5.8163   -3.2914  -21.3184 O   0  0  0  0  0  0  0  0  0  0  0  0
   -7.3915   -1.4679  -21.2920 C   0  0  0  0  0  0  0  0  0  0  0  0
   -6.5717   -0.8381  -20.1959 C   0  0  0  0  0  0  0  0  0  0  0  0
   -6.8711   -1.0590  -18.8785 C   0  0  0  0  0  0  0  0  0  0  0  0
   -6.1882   -0.5584  -17.8140 N   0  0  0  0  0  0  0  0  0  0  0  0
   -5.1608    0.2115  -18.0771 C   0  0  0  0  0  0  0  0  0  0  0  0
   -4.7227    0.5265  -19.3917 C   0  0  0  0  0  0  0  0  0  0  0  0
   -3.5973    1.3566  -19.6250 C   0  0  0  0  0  0  0  0  0  0  0  0
   -3.1988    1.6305  -20.9022 C   0  0  0  0  0  0  0  0  0  0  0  0
   -3.9072    1.0885  -21.9975 C   0  0  0  0  0  0  0  0  0  0  0  0
   -5.0008    0.2839  -21.8071 C   0  0  0  0  0  0  0  0  0  0  0  0
   -5.4400   -0.0153  -20.4870 C   0  0  0  0  0  0  0  0  0  0  0  0
   -5.5273   -0.1199  -22.6720 H   0  0  0  0  0  0  0  0  0  0  0  0
   -3.5844    1.3182  -23.0105 H   0  0  0  0  0  0  0  0  0  0  0  0
   -2.3417    2.2717  -21.0869 H   0  0  0  0  0  0  0  0  0  0  0  0
   -3.0723    1.7686  -18.7660 H   0  0  0  0  0  0  0  0  0  0  0  0
   -4.6184    0.6240  -17.2233 H   0  0  0  0  0  0  0  0  0  0  0  0
   -7.7258   -1.6774  -18.6011 H   0  0  0  0  0  0  0  0  0  0  0  0
   -7.6373   -0.7390  -22.0722 H   0  0  0  0  0  0  0  0  0  0  0  0
   -8.3571   -1.7819  -20.8702 H   0  0  0  0  0  0  0  0  0  0  0  0
   -6.2708   -4.7187  -24.1766 H   0  0  0  0  0  0  0  0  0  0  0  0
   -6.5191   -5.0841  -22.4712 H   0  0  0  0  0  0  0  0  0  0  0  0
   -7.9729   -6.3436  -24.2672 H   0  0  0  0  0  0  0  0  0  0  0  0
   -8.7883   -5.7621  -22.8150 H   0  0  0  0  0  0  0  0  0  0  0  0
  -10.0495   -4.2414  -23.9277 H   0  0  0  0  0  0  0  0  0  0  0  0
   -9.2415   -2.7679  -25.7452 H   0  0  0  0  0  0  0  0  0  0  0  0
   -7.7200   -3.6687  -25.8299 H   0  0  0  0  0  0  0  0  0  0  0  0
   -8.8562   -1.9734  -23.5575 H   0  0  0  0  0  0  0  0  0  0  0  0
   -5.4429   -2.6624  -24.9389 H   0  0  0  0  0  0  0  0  0  0  0  0
   -3.9958   -0.9275  -25.9031 H   0  0  0  0  0  0  0  0  0  0  0  0
   -4.8488    1.4007  -26.1747 H   0  0  0  0  0  0  0  0  0  0  0  0
   -7.1598    1.9434  -25.5015 H   0  0  0  0  0  0  0  0  0  0  0  0
   -9.3062    1.8003  -25.5876 H   0  0  0  0  0  0  0  0  0  0  0  0
   -8.8894    2.1701  -23.8878 H   0  0  0  0  0  0  0  0  0  0  0  0
  -10.4452    1.3587  -24.2622 H   0  0  0  0  0  0  0  0  0  0  0  0
  1  2  1  0
  2  3  1  0
  3  4  2  0
  4  5  1  0
  5  6  2  0
  6  7  1  0
  7  8  2  0
  8  9  1  0
  9 10  1  0
 10 11  1  0
 11 12  1  0
 12 13  1  0
 12 14  1  0
 12 15  1  0
 11 16  1  0
 16 17  1  0
 17 18  1  0
 18 19  1  0
 19 20  2  0
 19 21  1  0
 21 22  1  0
 22 23  2  0
 23 24  1  0
 24 25  2  0
 25 26  1  0
 26 27  2  0
 27 28  1  0
 28 29  2  0
 29 30  1  0
 30 31  2  0
 30 32  1  0
 29 33  1  0
 28 34  1  0
 27 35  1  0
 25 36  1  0
 23 37  1  0
 21 38  1  0
 21 39  1  0
 17 40  1  0
 17 41  1  0
 16 42  1  0
 16 43  1  0
 11 44  1  1
 10 45  1  0
 10 46  1  0
  9 47  1  1
  7 48  1  0
  6 49  1  0
  5 50  1  0
  4 51  1  0
  1 52  1  0
  1 53  1  0
  1 54  1  0
  8  3  1  0
 18  9  1  0
 31 22  1  0
 31 26  1  0
M  END
>  <cnnaffinities>  (80) 
[5.98878]

>  <score>  (80) 
5.98878

>  <index>  (80) 
82

>  <Smiles>  (80) 
C(Oc1c(c(c(c(c1[C@]1(C([C@@](C([H])([H])[H])(C(C(N1C(=O)C(c1c(nc(c2c(c(c(c(c12)[H])[H])[H])[H])[H])[H])([H])[H])([H])[H])([H])[H])[H])([H])[H])[H])[H])[H])[H])[H])([H])([H])[H]

>  <h>  (80) 
<NA>

>  <Training>  (80) 
True

>  <Success>  (80) 
True

>  <enamine_searched>  (80) 
False

>  <enamine_id>  (80) 
nan

$$$$

     RDKit          3D

 46 50  0  0  0  0  0  0  0  0999 V2000
   -3.6279   -1.0747  -25.3604 N   0  0  0  0  0  0  0  0  0  0  0  0
   -4.5228   -2.0123  -26.3759 S   0  0  0  0  0  0  0  0  0  0  0  0
   -4.3072   -3.3729  -25.9202 O   0  0  0  0  0  0  0  0  0  0  0  0
   -4.1874   -1.5790  -27.7193 O   0  0  0  0  0  0  0  0  0  0  0  0
   -6.2211   -1.5861  -26.0884 C   0  0  0  0  0  0  0  0  0  0  0  0
   -6.9627   -0.9880  -27.1009 C   0  0  0  0  0  0  0  0  0  0  0  0
   -8.2719   -0.6356  -26.8531 C   0  0  0  0  0  0  0  0  0  0  0  0
   -8.8391   -0.8571  -25.5986 C   0  0  0  0  0  0  0  0  0  0  0  0
   -8.0966   -1.4540  -24.5783 C   0  0  0  0  0  0  0  0  0  0  0  0
   -6.7774   -1.8082  -24.8383 C   0  0  0  0  0  0  0  0  0  0  0  0
   -6.1854   -2.2816  -24.0624 H   0  0  0  0  0  0  0  0  0  0  0  0
   -8.6852   -1.6848  -23.1982 C   0  0  1  0  0  0  0  0  0  0  0  0
  -10.2198   -1.5964  -23.2662 C   0  0  0  0  0  0  0  0  0  0  0  0
  -10.6569   -0.4241  -24.1343 C   0  0  0  0  0  0  0  0  0  0  0  0
  -10.1393   -0.5037  -25.4578 O   0  0  0  0  0  0  0  0  0  0  0  0
  -10.3498    0.5230  -23.6680 H   0  0  0  0  0  0  0  0  0  0  0  0
  -11.7393   -0.4415  -24.2849 H   0  0  0  0  0  0  0  0  0  0  0  0
  -10.6035   -1.5027  -22.2470 H   0  0  0  0  0  0  0  0  0  0  0  0
  -10.6174   -2.5307  -23.6861 H   0  0  0  0  0  0  0  0  0  0  0  0
   -8.2610   -2.9237  -22.5882 N   0  0  0  0  0  0  0  0  0  0  0  0
   -7.4924   -2.7899  -21.4713 C   0  0  0  0  0  0  0  0  0  0  0  0
   -6.9497   -3.6677  -20.8403 O   0  0  0  0  0  0  0  0  0  0  0  0
   -7.4067   -1.4038  -21.2176 N   0  0  0  0  0  0  0  0  0  0  0  0
   -6.5911   -0.8328  -20.1985 C   0  0  0  0  0  0  0  0  0  0  0  0
   -6.9010   -1.0707  -18.8849 C   0  0  0  0  0  0  0  0  0  0  0  0
   -6.2099   -0.5592  -17.8404 N   0  0  0  0  0  0  0  0  0  0  0  0
   -5.1795    0.2067  -18.0991 C   0  0  0  0  0  0  0  0  0  0  0  0
   -4.7336    0.5189  -19.4105 C   0  0  0  0  0  0  0  0  0  0  0  0
   -3.5990    1.3440  -19.6379 C   0  0  0  0  0  0  0  0  0  0  0  0
   -3.1811    1.6057  -20.9133 C   0  0  0  0  0  0  0  0  0  0  0  0
   -3.8771    1.0463  -22.0101 C   0  0  0  0  0  0  0  0  0  0  0  0
   -4.9768    0.2499  -21.8171 C   0  0  0  0  0  0  0  0  0  0  0  0
   -5.4477   -0.0243  -20.5026 C   0  0  0  0  0  0  0  0  0  0  0  0
   -5.5161   -0.1665  -22.6664 H   0  0  0  0  0  0  0  0  0  0  0  0
   -3.5390    1.2611  -23.0197 H   0  0  0  0  0  0  0  0  0  0  0  0
   -2.3197    2.2450  -21.0906 H   0  0  0  0  0  0  0  0  0  0  0  0
   -3.0783    1.7603  -18.7802 H   0  0  0  0  0  0  0  0  0  0  0  0
   -4.6372    0.6105  -17.2436 H   0  0  0  0  0  0  0  0  0  0  0  0
   -7.7520   -1.6918  -18.6172 H   0  0  0  0  0  0  0  0  0  0  0  0
   -8.1004   -0.6754  -22.1888 C   0  0  0  0  0  0  0  0  0  0  0  0
   -8.2039    0.5229  -22.2239 O   0  0  0  0  0  0  0  0  0  0  0  0
   -8.4565   -3.8281  -22.9866 H   0  0  0  0  0  0  0  0  0  0  0  0
   -8.8846   -0.2124  -27.6305 H   0  0  0  0  0  0  0  0  0  0  0  0
   -6.5159   -0.8174  -28.0727 H   0  0  0  0  0  0  0  0  0  0  0  0
   -3.7340   -0.0836  -25.5459 H   0  0  0  0  0  0  0  0  0  0  0  0
   -3.7010   -1.3577  -24.3902 H   0  0  0  0  0  0  0  0  0  0  0  0
  1  2  1  0
  2  3  2  0
  2  4  2  0
  2  5  1  0
  5  6  2  0
  6  7  1  0
  7  8  2  0
  8  9  1  0
  9 10  2  0
 10 11  1  0
  9 12  1  0
 12 13  1  0
 13 14  1  0
 14 15  1  0
 14 16  1  0
 14 17  1  0
 13 18  1  0
 13 19  1  0
 12 20  1  1
 20 21  1  0
 21 22  2  0
 21 23  1  0
 23 24  1  0
 24 25  2  0
 25 26  1  0
 26 27  2  0
 27 28  1  0
 28 29  2  0
 29 30  1  0
 30 31  2  0
 31 32  1  0
 32 33  2  0
 32 34  1  0
 31 35  1  0
 30 36  1  0
 29 37  1  0
 27 38  1  0
 25 39  1  0
 23 40  1  0
 40 41  2  0
 20 42  1  0
  7 43  1  0
  6 44  1  0
  1 45  1  0
  1 46  1  0
 10  5  1  0
 40 12  1  0
 15  8  1  0
 33 24  1  0
 33 28  1  0
M  END
>  <cnnaffinities>  (81) 
[5.21048, 5.19981]

>  <score>  (81) 
5.21048

>  <index>  (81) 
83

>  <Smiles>  (81) 
N(S(=O)(=O)c1c(c(c2c(c1[H])[C@@]1(C(C(O2)([H])[H])([H])[H])N(C(=O)N(c2c(nc(c3c(c(c(c(c23)[H])[H])[H])[H])[H])[H])C1=O)[H])[H])[H])([H])[H]

>  <h>  (81) 
<NA>

>  <Training>  (81) 
True

>  <Success>  (81) 
True

>  <enamine_searched>  (81) 
False

>  <enamine_id>  (81) 
nan

$$$$

     RDKit          3D

 63 68  0  0  0  0  0  0  0  0999 V2000
   -7.3547   -4.9437  -23.0002 C   0  0  0  0  0  0  0  0  0  0  0  0
   -7.3908   -3.6052  -22.2696 C   0  0  1  0  0  0  0  0  0  0  0  0
   -6.2798   -3.3096  -21.2481 C   0  0  0  0  0  0  0  0  0  0  0  0
   -6.5416   -1.9027  -20.9789 N   0  0  0  0  0  0  0  0  0  0  0  0
   -6.0446   -1.1353  -19.9183 C   0  0  0  0  0  0  0  0  0  0  0  0
   -6.5075   -1.3225  -18.6449 C   0  0  0  0  0  0  0  0  0  0  0  0
   -6.0502   -0.6407  -17.5713 N   0  0  0  0  0  0  0  0  0  0  0  0
   -5.0962    0.2363  -17.7813 C   0  0  0  0  0  0  0  0  0  0  0  0
   -4.5417    0.5277  -19.0584 C   0  0  0  0  0  0  0  0  0  0  0  0
   -3.4731    1.4438  -19.2332 C   0  0  0  0  0  0  0  0  0  0  0  0
   -3.0245    1.7547  -20.4866 C   0  0  0  0  0  0  0  0  0  0  0  0
   -3.6333    1.1850  -21.6291 C   0  0  0  0  0  0  0  0  0  0  0  0
   -4.6482    0.2788  -21.4822 C   0  0  0  0  0  0  0  0  0  0  0  0
   -5.0830   -0.1163  -20.1837 C   0  0  0  0  0  0  0  0  0  0  0  0
   -5.1423   -0.1122  -22.3648 H   0  0  0  0  0  0  0  0  0  0  0  0
   -3.3084    1.4713  -22.6273 H   0  0  0  0  0  0  0  0  0  0  0  0
   -2.2103    2.4587  -20.6166 H   0  0  0  0  0  0  0  0  0  0  0  0
   -3.0337    1.8928  -18.3474 H   0  0  0  0  0  0  0  0  0  0  0  0
   -4.7212    0.7710  -16.9123 H   0  0  0  0  0  0  0  0  0  0  0  0
   -7.3085   -2.0405  -18.4674 H   0  0  0  0  0  0  0  0  0  0  0  0
   -7.2566   -1.2762  -21.9677 C   0  0  0  0  0  0  0  0  0  0  0  0
   -7.6388   -0.1260  -21.9214 O   0  0  0  0  0  0  0  0  0  0  0  0
   -7.4322   -2.2909  -23.1124 C   0  0  1  0  0  0  0  0  0  0  0  0
   -6.2337   -2.1217  -24.1028 C   0  0  0  0  0  0  0  0  0  0  0  0
   -6.3078   -0.9032  -24.9186 N   0  0  0  0  0  0  0  0  0  0  0  0
   -5.1082   -0.3730  -25.5664 C   0  0  0  0  0  0  0  0  0  0  0  0
   -5.1026   -0.6110  -27.0951 C   0  0  0  0  0  0  0  0  0  0  0  0
   -4.6973   -1.6529  -27.5819 O   0  0  0  0  0  0  0  0  0  0  0  0
   -5.5522    0.4376  -27.8543 N   0  0  0  0  0  0  0  0  0  0  0  0
   -5.8682    0.2446  -29.2621 C   0  0  0  0  0  0  0  0  0  0  0  0
   -4.7755    0.6843  -30.2069 C   0  0  0  0  0  0  0  0  0  0  0  0
   -4.6972    2.0553  -30.3096 F   0  0  0  0  0  0  0  0  0  0  0  0
   -4.4903   -0.0679  -31.4624 C   0  0  0  0  0  0  0  0  0  0  0  0
   -3.4882   -0.0514  -30.3267 C   0  0  0  0  0  0  0  0  0  0  0  0
   -2.6077    0.5681  -30.4740 H   0  0  0  0  0  0  0  0  0  0  0  0
   -3.3642   -0.9494  -29.7249 H   0  0  0  0  0  0  0  0  0  0  0  0
   -5.0406   -0.9839  -31.6721 H   0  0  0  0  0  0  0  0  0  0  0  0
   -4.2399    0.5412  -32.3251 H   0  0  0  0  0  0  0  0  0  0  0  0
   -6.7701    0.8142  -29.5095 H   0  0  0  0  0  0  0  0  0  0  0  0
   -6.0762   -0.8169  -29.4347 H   0  0  0  0  0  0  0  0  0  0  0  0
   -6.0941    1.1337  -27.3605 H   0  0  0  0  0  0  0  0  0  0  0  0
   -4.2310   -0.8707  -25.1472 H   0  0  0  0  0  0  0  0  0  0  0  0
   -5.0207    0.7021  -25.3594 H   0  0  0  0  0  0  0  0  0  0  0  0
   -7.4623   -0.2435  -25.1723 C   0  0  0  0  0  0  0  0  0  0  0  0
   -7.4855    0.8254  -25.7878 O   0  0  0  0  0  0  0  0  0  0  0  0
   -8.7154   -0.9004  -24.7090 C   0  0  0  0  0  0  0  0  0  0  0  0
   -9.9057   -0.3915  -25.2025 C   0  0  0  0  0  0  0  0  0  0  0  0
  -11.1148   -0.9387  -24.8453 C   0  0  0  0  0  0  0  0  0  0  0  0
  -11.1050   -2.0073  -23.9485 C   0  0  0  0  0  0  0  0  0  0  0  0
  -12.2666   -2.5441  -23.5443 F   0  0  0  0  0  0  0  0  0  0  0  0
   -9.9347   -2.5115  -23.4168 C   0  0  0  0  0  0  0  0  0  0  0  0
   -8.7121   -1.9691  -23.8107 C   0  0  0  0  0  0  0  0  0  0  0  0
   -9.9999   -3.2785  -22.6541 H   0  0  0  0  0  0  0  0  0  0  0  0
  -12.0403   -0.5268  -25.2289 H   0  0  0  0  0  0  0  0  0  0  0  0
   -9.8202    0.4807  -25.8357 H   0  0  0  0  0  0  0  0  0  0  0  0
   -5.2936   -2.0807  -23.5441 H   0  0  0  0  0  0  0  0  0  0  0  0
   -6.1808   -2.9966  -24.7569 H   0  0  0  0  0  0  0  0  0  0  0  0
   -6.3365   -3.8853  -20.3199 H   0  0  0  0  0  0  0  0  0  0  0  0
   -5.2810   -3.4636  -21.6893 H   0  0  0  0  0  0  0  0  0  0  0  0
   -8.3103   -3.5851  -21.6705 H   0  0  0  0  0  0  0  0  0  0  0  0
   -8.1715   -5.0030  -23.7302 H   0  0  0  0  0  0  0  0  0  0  0  0
   -6.4207   -5.1188  -23.5445 H   0  0  0  0  0  0  0  0  0  0  0  0
   -7.4828   -5.7763  -22.2963 H   0  0  0  0  0  0  0  0  0  0  0  0
  1  2  1  0
  2  3  1  0
  3  4  1  0
  4  5  1  0
  5  6  2  0
  6  7  1  0
  7  8  2  0
  8  9  1  0
  9 10  2  0
 10 11  1  0
 11 12  2  0
 12 13  1  0
 13 14  2  0
 13 15  1  0
 12 16  1  0
 11 17  1  0
 10 18  1  0
  8 19  1  0
  6 20  1  0
  4 21  1  0
 21 22  2  0
 21 23  1  0
 23 24  1  6
 24 25  1  0
 25 26  1  0
 26 27  1  0
 27 28  2  0
 27 29  1  0
 29 30  1  0
 30 31  1  0
 31 32  1  0
 31 33  1  0
 33 34  1  0
 34 35  1  0
 34 36  1  0
 33 37  1  0
 33 38  1  0
 30 39  1  0
 30 40  1  0
 29 41  1  0
 26 42  1  0
 26 43  1  0
 25 44  1  0
 44 45  2  0
 44 46  1  0
 46 47  2  0
 47 48  1  0
 48 49  2  0
 49 50  1  0
 49 51  1  0
 51 52  2  0
 51 53  1  0
 48 54  1  0
 47 55  1  0
 24 56  1  0
 24 57  1  0
  3 58  1  0
  3 59  1  0
  2 60  1  1
  1 61  1  0
  1 62  1  0
  1 63  1  0
 23  2  1  0
 34 31  1  0
 52 46  1  0
 14  5  1  0
 52 23  1  0
 14  9  1  0
M  END
>  <cnnaffinities>  (82) 
[5.80645, 5.95475, 6.01965, 6.84108]

>  <score>  (82) 
5.80645

>  <index>  (82) 
84

>  <Smiles>  (82) 
C([C@]1(C(N(c2c(nc(c3c(c(c(c(c23)[H])[H])[H])[H])[H])[H])C(=O)[C@]21C(N(C(C(=O)N(C(C1(F)C(C1([H])[H])([H])[H])([H])[H])[H])([H])[H])C(=O)c1c(c(c(F)c(c21)[H])[H])[H])([H])[H])([H])[H])[H])([H])([H])[H]

>  <h>  (82) 
<NA>

>  <Training>  (82) 
True

>  <Success>  (82) 
True

>  <enamine_searched>  (82) 
False

>  <enamine_id>  (82) 
nan

$$$$

     RDKit          3D

 57 62  0  0  0  0  0  0  0  0999 V2000
   -9.0946   -8.6992  -23.5756 C   0  0  0  0  0  0  0  0  0  0  0  0
   -8.4110   -7.4819  -23.2005 N   0  0  0  0  0  0  0  0  0  0  0  0
   -7.2164   -7.2143  -23.8058 C   0  0  0  0  0  0  0  0  0  0  0  0
   -6.8642   -7.7566  -24.8319 O   0  0  0  0  0  0  0  0  0  0  0  0
   -6.4039   -6.0886  -23.1866 C   0  0  0  0  0  0  0  0  0  0  0  0
   -6.8104   -4.8367  -23.7689 N   0  0  0  0  0  0  0  0  0  0  0  0
   -8.0345   -4.2358  -23.2772 C   0  0  0  0  0  0  0  0  0  0  0  0
   -7.8587   -2.7149  -23.1578 C   0  0  2  0  0  0  0  0  0  0  0  0
   -6.8222   -2.4141  -22.0510 C   0  0  0  0  0  0  0  0  0  0  0  0
   -5.7259   -2.9191  -21.9129 O   0  0  0  0  0  0  0  0  0  0  0  0
   -7.3419   -1.4495  -21.2177 N   0  0  0  0  0  0  0  0  0  0  0  0
   -6.5720   -0.8505  -20.1925 C   0  0  0  0  0  0  0  0  0  0  0  0
   -6.9026   -1.0587  -18.8772 C   0  0  0  0  0  0  0  0  0  0  0  0
   -6.2164   -0.5564  -17.8237 N   0  0  0  0  0  0  0  0  0  0  0  0
   -5.1806    0.2041  -18.0903 C   0  0  0  0  0  0  0  0  0  0  0  0
   -4.7376    0.5180  -19.4078 C   0  0  0  0  0  0  0  0  0  0  0  0
   -3.6146    1.3582  -19.6353 C   0  0  0  0  0  0  0  0  0  0  0  0
   -3.2261    1.6631  -20.9102 C   0  0  0  0  0  0  0  0  0  0  0  0
   -3.9463    1.1527  -22.0148 C   0  0  0  0  0  0  0  0  0  0  0  0
   -5.0382    0.3428  -21.8255 C   0  0  0  0  0  0  0  0  0  0  0  0
   -5.4525   -0.0116  -20.5054 C   0  0  0  0  0  0  0  0  0  0  0  0
   -5.5923   -0.0242  -22.6908 H   0  0  0  0  0  0  0  0  0  0  0  0
   -3.6285    1.4072  -23.0225 H   0  0  0  0  0  0  0  0  0  0  0  0
   -2.3670    2.3051  -21.0860 H   0  0  0  0  0  0  0  0  0  0  0  0
   -3.0848    1.7561  -18.7734 H   0  0  0  0  0  0  0  0  0  0  0  0
   -4.6326    0.6130  -17.2412 H   0  0  0  0  0  0  0  0  0  0  0  0
   -7.7582   -1.6886  -18.6329 H   0  0  0  0  0  0  0  0  0  0  0  0
   -8.7218   -1.1080  -21.4900 C   0  0  0  0  0  0  0  0  0  0  0  0
   -9.1181   -1.9928  -22.6636 C   0  0  0  0  0  0  0  0  0  0  0  0
  -10.4772   -2.6425  -22.5953 C   0  0  0  0  0  0  0  0  0  0  0  0
  -10.2068   -1.5664  -23.6113 C   0  0  0  0  0  0  0  0  0  0  0  0
  -10.1029   -1.8722  -24.6503 H   0  0  0  0  0  0  0  0  0  0  0  0
  -10.6204   -0.5674  -23.4864 H   0  0  0  0  0  0  0  0  0  0  0  0
  -10.5794   -3.6674  -22.9417 H   0  0  0  0  0  0  0  0  0  0  0  0
  -11.1010   -2.4085  -21.7348 H   0  0  0  0  0  0  0  0  0  0  0  0
   -9.3464   -1.3399  -20.6292 H   0  0  0  0  0  0  0  0  0  0  0  0
   -8.8122   -0.0446  -21.7419 H   0  0  0  0  0  0  0  0  0  0  0  0
   -7.3098   -2.2098  -24.4890 C   0  0  0  0  0  0  0  0  0  0  0  0
   -7.4437   -0.8598  -24.8259 C   0  0  0  0  0  0  0  0  0  0  0  0
   -6.9118   -0.3933  -26.0142 C   0  0  0  0  0  0  0  0  0  0  0  0
   -7.0908    1.2908  -26.4253 Cl  0  0  0  0  0  0  0  0  0  0  0  0
   -6.2275   -1.2410  -26.8878 C   0  0  0  0  0  0  0  0  0  0  0  0
   -6.0526   -2.5673  -26.5448 C   0  0  0  0  0  0  0  0  0  0  0  0
   -6.5682   -3.0372  -25.3403 C   0  0  0  0  0  0  0  0  0  0  0  0
   -6.2254   -4.4309  -24.9352 C   0  0  0  0  0  0  0  0  0  0  0  0
   -5.4432   -5.1224  -25.5718 O   0  0  0  0  0  0  0  0  0  0  0  0
   -5.4970   -3.2712  -27.1625 H   0  0  0  0  0  0  0  0  0  0  0  0
   -5.8149   -0.8459  -27.8063 H   0  0  0  0  0  0  0  0  0  0  0  0
   -7.9743   -0.1783  -24.1666 H   0  0  0  0  0  0  0  0  0  0  0  0
   -8.2588   -4.6411  -22.2853 H   0  0  0  0  0  0  0  0  0  0  0  0
   -8.8688   -4.4523  -23.9619 H   0  0  0  0  0  0  0  0  0  0  0  0
   -5.3569   -6.2555  -23.4289 H   0  0  0  0  0  0  0  0  0  0  0  0
   -6.5312   -6.0041  -22.1008 H   0  0  0  0  0  0  0  0  0  0  0  0
   -8.6209   -7.0922  -22.2923 H   0  0  0  0  0  0  0  0  0  0  0  0
  -10.0519   -8.7854  -23.0655 H   0  0  0  0  0  0  0  0  0  0  0  0
   -9.2492   -8.7304  -24.6605 H   0  0  0  0  0  0  0  0  0  0  0  0
   -8.4558   -9.5395  -23.2996 H   0  0  0  0  0  0  0  0  0  0  0  0
  1  2  1  0
  2  3  1  0
  3  4  2  0
  3  5  1  0
  5  6  1  0
  6  7  1  0
  8  7  1  6
  8  9  1  0
  9 10  2  0
  9 11  1  0
 11 12  1  0
 12 13  2  0
 13 14  1  0
 14 15  2  0
 15 16  1  0
 16 17  2  0
 17 18  1  0
 18 19  2  0
 19 20  1  0
 20 21  2  0
 20 22  1  0
 19 23  1  0
 18 24  1  0
 17 25  1  0
 15 26  1  0
 13 27  1  0
 11 28  1  0
 28 29  1  0
 29 30  1  0
 30 31  1  0
 31 32  1  0
 31 33  1  0
 30 34  1  0
 30 35  1  0
 28 36  1  0
 28 37  1  0
  8 38  1  0
 38 39  2  0
 39 40  1  0
 40 41  1  0
 40 42  2  0
 42 43  1  0
 43 44  2  0
 44 45  1  0
 45 46  2  0
 43 47  1  0
 42 48  1  0
 39 49  1  0
  7 50  1  0
  7 51  1  0
  5 52  1  0
  5 53  1  0
  2 54  1  0
  1 55  1  0
  1 56  1  0
  1 57  1  0
 45  6  1  0
 29  8  1  0
 44 38  1  0
 21 12  1  0
 31 29  1  0
 21 16  1  0
M  END
>  <cnnaffinities>  (83) 
[6.06653]

>  <score>  (83) 
6.06653

>  <index>  (83) 
85

>  <Smiles>  (83) 
C(N(C(=O)C(N1C([C@@]2(C(=O)N(c3c(nc(c4c(c(c(c(c34)[H])[H])[H])[H])[H])[H])C(C32C(C3([H])[H])([H])[H])([H])[H])c2c(c(Cl)c(c(c2C1=O)[H])[H])[H])([H])[H])([H])[H])[H])([H])([H])[H]

>  <h>  (83) 
<NA>

>  <Training>  (83) 
True

>  <Success>  (83) 
True

>  <enamine_searched>  (83) 
False

>  <enamine_id>  (83) 
nan

$$$$

     RDKit          3D

 43 45  0  0  0  0  0  0  0  0999 V2000
   -8.5471   -5.5638  -25.7821 C   0  0  0  0  0  0  0  0  0  0  0  0
   -9.0640   -5.4500  -24.3452 C   0  0  1  0  0  0  0  0  0  0  0  0
   -8.0272   -5.8768  -23.3089 C   0  0  0  0  0  0  0  0  0  0  0  0
   -6.9378   -4.8321  -23.0942 C   0  0  0  0  0  0  0  0  0  0  0  0
   -7.5144   -3.5414  -22.7122 N   0  0  0  0  0  0  0  0  0  0  0  0
   -6.7560   -2.7460  -21.8645 C   0  0  0  0  0  0  0  0  0  0  0  0
   -5.6215   -3.0587  -21.5491 O   0  0  0  0  0  0  0  0  0  0  0  0
   -7.4129   -1.4741  -21.2711 C   0  0  0  0  0  0  0  0  0  0  0  0
   -6.5799   -0.8296  -20.1863 C   0  0  0  0  0  0  0  0  0  0  0  0
   -6.8738   -1.0471  -18.8670 C   0  0  0  0  0  0  0  0  0  0  0  0
   -6.1852   -0.5517  -17.8040 N   0  0  0  0  0  0  0  0  0  0  0  0
   -5.1586    0.2202  -18.0669 C   0  0  0  0  0  0  0  0  0  0  0  0
   -4.7221    0.5310  -19.3814 C   0  0  0  0  0  0  0  0  0  0  0  0
   -3.5936    1.3575  -19.6213 C   0  0  0  0  0  0  0  0  0  0  0  0
   -3.1903    1.6325  -20.9002 C   0  0  0  0  0  0  0  0  0  0  0  0
   -3.9007    1.0885  -21.9929 C   0  0  0  0  0  0  0  0  0  0  0  0
   -4.9973    0.2877  -21.7861 C   0  0  0  0  0  0  0  0  0  0  0  0
   -5.4444   -0.0129  -20.4744 C   0  0  0  0  0  0  0  0  0  0  0  0
   -5.5268   -0.1293  -22.6360 H   0  0  0  0  0  0  0  0  0  0  0  0
   -3.5741    1.3099  -23.0047 H   0  0  0  0  0  0  0  0  0  0  0  0
   -2.3297    2.2703  -21.0870 H   0  0  0  0  0  0  0  0  0  0  0  0
   -3.0589    1.7731  -18.7698 H   0  0  0  0  0  0  0  0  0  0  0  0
   -4.6068    0.6268  -17.2161 H   0  0  0  0  0  0  0  0  0  0  0  0
   -7.7215   -1.6699  -18.5880 H   0  0  0  0  0  0  0  0  0  0  0  0
   -7.6221   -0.7472  -22.0686 H   0  0  0  0  0  0  0  0  0  0  0  0
   -8.3923   -1.7504  -20.8545 H   0  0  0  0  0  0  0  0  0  0  0  0
   -8.5398   -2.9963  -23.6133 C   0  0  1  0  0  0  0  0  0  0  0  0
   -7.9409   -2.2906  -24.8404 C   0  0  0  0  0  0  0  0  0  0  0  0
   -8.7281   -1.9760  -25.5348 H   0  0  0  0  0  0  0  0  0  0  0  0
   -7.2484   -2.9312  -25.3934 H   0  0  0  0  0  0  0  0  0  0  0  0
   -7.3905   -1.3888  -24.5496 H   0  0  0  0  0  0  0  0  0  0  0  0
   -9.5910   -4.0643  -23.9668 C   0  0  0  0  0  0  0  0  0  0  0  0
  -10.2124   -3.6820  -24.7837 H   0  0  0  0  0  0  0  0  0  0  0  0
  -10.2622   -4.1718  -23.1082 H   0  0  0  0  0  0  0  0  0  0  0  0
   -9.0798   -2.2362  -23.0438 H   0  0  0  0  0  0  0  0  0  0  0  0
   -6.3004   -4.7547  -23.9885 H   0  0  0  0  0  0  0  0  0  0  0  0
   -6.2739   -5.1446  -22.2908 H   0  0  0  0  0  0  0  0  0  0  0  0
   -7.5753   -6.8273  -23.6118 H   0  0  0  0  0  0  0  0  0  0  0  0
   -8.5217   -6.0614  -22.3508 H   0  0  0  0  0  0  0  0  0  0  0  0
   -9.9156   -6.1421  -24.2743 H   0  0  0  0  0  0  0  0  0  0  0  0
   -7.6004   -5.0394  -25.9388 H   0  0  0  0  0  0  0  0  0  0  0  0
   -8.3803   -6.6142  -26.0495 H   0  0  0  0  0  0  0  0  0  0  0  0
   -9.2679   -5.1523  -26.4964 H   0  0  0  0  0  0  0  0  0  0  0  0
  1  2  1  0
  2  3  1  0
  3  4  1  0
  4  5  1  0
  5  6  1  0
  6  7  2  0
  6  8  1  0
  8  9  1  0
  9 10  2  0
 10 11  1  0
 11 12  2  0
 12 13  1  0
 13 14  2  0
 14 15  1  0
 15 16  2  0
 16 17  1  0
 17 18  2  0
 17 19  1  0
 16 20  1  0
 15 21  1  0
 14 22  1  0
 12 23  1  0
 10 24  1  0
  8 25  1  0
  8 26  1  0
  5 27  1  0
 27 28  1  0
 28 29  1  0
 28 30  1  0
 28 31  1  0
 27 32  1  0
 32 33  1  0
 32 34  1  0
 27 35  1  1
  4 36  1  0
  4 37  1  0
  3 38  1  0
  3 39  1  0
  2 40  1  6
  1 41  1  0
  1 42  1  0
  1 43  1  0
 32  2  1  0
 18  9  1  0
 18 13  1  0
M  END
>  <cnnaffinities>  (84) 
[5.38801]

>  <score>  (84) 
5.38801

>  <index>  (84) 
86

>  <Smiles>  (84) 
C([C@]1(C(C(N(C(=O)C(c2c(nc(c3c(c(c(c(c23)[H])[H])[H])[H])[H])[H])([H])[H])[C@@](C([H])([H])[H])(C1([H])[H])[H])([H])[H])([H])[H])[H])([H])([H])[H]

>  <h>  (84) 
<NA>

>  <Training>  (84) 
True

>  <Success>  (84) 
True

>  <enamine_searched>  (84) 
False

>  <enamine_id>  (84) 
nan

$$$$

     RDKit          3D

 59 64  0  0  0  0  0  0  0  0999 V2000
  -10.1613   -2.6838  -22.2631 C   0  0  0  0  0  0  0  0  0  0  0  0
   -8.9793   -1.8582  -22.7885 C   0  0  1  0  0  0  0  0  0  0  0  0
   -8.5485   -0.8122  -21.7322 C   0  0  0  0  0  0  0  0  0  0  0  0
   -7.3751   -1.4062  -21.1216 N   0  0  0  0  0  0  0  0  0  0  0  0
   -6.6181   -0.7826  -20.1003 C   0  0  0  0  0  0  0  0  0  0  0  0
   -6.9609   -0.9678  -18.7886 C   0  0  0  0  0  0  0  0  0  0  0  0
   -6.2653   -0.4613  -17.7432 N   0  0  0  0  0  0  0  0  0  0  0  0
   -5.2122    0.2707  -18.0200 C   0  0  0  0  0  0  0  0  0  0  0  0
   -4.7563    0.5510  -19.3402 C   0  0  0  0  0  0  0  0  0  0  0  0
   -3.6128    1.3553  -19.5871 C   0  0  0  0  0  0  0  0  0  0  0  0
   -3.2006    1.5974  -20.8676 C   0  0  0  0  0  0  0  0  0  0  0  0
   -3.9105    1.0501  -21.9608 C   0  0  0  0  0  0  0  0  0  0  0  0
   -5.0235    0.2770  -21.7532 C   0  0  0  0  0  0  0  0  0  0  0  0
   -5.4716    0.0051  -20.4250 C   0  0  0  0  0  0  0  0  0  0  0  0
   -5.5635   -0.1377  -22.6046 H   0  0  0  0  0  0  0  0  0  0  0  0
   -3.5655    1.2458  -22.9720 H   0  0  0  0  0  0  0  0  0  0  0  0
   -2.3282    2.2162  -21.0565 H   0  0  0  0  0  0  0  0  0  0  0  0
   -3.0852    1.7765  -18.7355 H   0  0  0  0  0  0  0  0  0  0  0  0
   -4.6559    0.6753  -17.1752 H   0  0  0  0  0  0  0  0  0  0  0  0
   -7.8251   -1.5814  -18.5383 H   0  0  0  0  0  0  0  0  0  0  0  0
   -6.7846   -2.3812  -21.8837 C   0  0  0  0  0  0  0  0  0  0  0  0
   -5.7264   -2.9150  -21.6017 O   0  0  0  0  0  0  0  0  0  0  0  0
   -7.6687   -2.6665  -23.1086 C   0  0  1  0  0  0  0  0  0  0  0  0
   -7.8805   -4.2019  -23.2176 C   0  0  0  0  0  0  0  0  0  0  0  0
   -6.6852   -4.9424  -23.6418 N   0  0  0  0  0  0  0  0  0  0  0  0
   -5.8827   -5.6760  -22.7148 C   0  0  0  0  0  0  0  0  0  0  0  0
   -7.5071   -7.3328  -23.0790 C   0  0  0  0  0  0  0  0  0  0  0  0
   -7.6926   -7.5103  -22.9349 C   0  0  0  0  0  0  0  0  0  0  0  0
   -9.7220   -8.8059  -23.2723 C   0  0  0  0  0  0  0  0  0  0  0  0
   -9.2040   -8.4322  -24.3710 N   0  0  0  0  0  0  0  0  0  0  0  0
   -8.0495   -7.8441  -24.2943 N   0  0  0  0  0  0  0  0  0  0  0  0
   -7.3812   -7.3092  -25.4429 C   0  0  0  0  0  0  0  0  0  0  0  0
   -7.7024   -6.2910  -25.6896 H   0  0  0  0  0  0  0  0  0  0  0  0
   -6.3070   -7.2898  -25.2686 H   0  0  0  0  0  0  0  0  0  0  0  0
   -7.6324   -7.9381  -26.3018 H   0  0  0  0  0  0  0  0  0  0  0  0
  -10.7439   -9.2219  -23.2701 H   0  0  0  0  0  0  0  0  0  0  0  0
   -7.0797   -6.7719  -22.1992 H   0  0  0  0  0  0  0  0  0  0  0  0
   -5.3832   -5.0597  -21.9568 H   0  0  0  0  0  0  0  0  0  0  0  0
   -5.2878   -6.3909  -23.2746 H   0  0  0  0  0  0  0  0  0  0  0  0
   -5.9700   -4.4691  -24.7221 C   0  0  0  0  0  0  0  0  0  0  0  0
   -5.1189   -5.1520  -25.2770 O   0  0  0  0  0  0  0  0  0  0  0  0
   -6.2453   -3.0749  -25.1793 C   0  0  0  0  0  0  0  0  0  0  0  0
   -5.6503   -2.6722  -26.3729 C   0  0  0  0  0  0  0  0  0  0  0  0
   -5.7780   -1.3723  -26.8156 C   0  0  0  0  0  0  0  0  0  0  0  0
   -6.4806   -0.4821  -26.0125 C   0  0  0  0  0  0  0  0  0  0  0  0
   -6.5878    0.7942  -26.4240 F   0  0  0  0  0  0  0  0  0  0  0  0
   -7.0718   -0.8549  -24.8168 C   0  0  0  0  0  0  0  0  0  0  0  0
   -6.9933   -2.1895  -24.3938 C   0  0  0  0  0  0  0  0  0  0  0  0
   -7.5913   -0.0952  -24.2399 H   0  0  0  0  0  0  0  0  0  0  0  0
   -5.3326   -1.0338  -27.7446 H   0  0  0  0  0  0  0  0  0  0  0  0
   -5.0836   -3.4123  -26.9264 H   0  0  0  0  0  0  0  0  0  0  0  0
   -8.6751   -4.3587  -23.9611 H   0  0  0  0  0  0  0  0  0  0  0  0
   -8.2121   -4.5799  -22.2505 H   0  0  0  0  0  0  0  0  0  0  0  0
   -8.3117    0.1618  -22.1879 H   0  0  0  0  0  0  0  0  0  0  0  0
   -9.3216   -0.6351  -20.9791 H   0  0  0  0  0  0  0  0  0  0  0  0
   -9.3271   -1.3607  -23.7026 H   0  0  0  0  0  0  0  0  0  0  0  0
  -10.4989   -3.4198  -22.9974 H   0  0  0  0  0  0  0  0  0  0  0  0
  -11.0121   -2.0253  -22.0547 H   0  0  0  0  0  0  0  0  0  0  0  0
   -9.9092   -3.2083  -21.3352 H   0  0  0  0  0  0  0  0  0  0  0  0
  1  2  1  0
  2  3  1  0
  3  4  1  0
  4  5  1  0
  5  6  2  0
  6  7  1  0
  7  8  2  0
  8  9  1  0
  9 10  2  0
 10 11  1  0
 11 12  2  0
 12 13  1  0
 13 14  2  0
 13 15  1  0
 12 16  1  0
 11 17  1  0
 10 18  1  0
  8 19  1  0
  6 20  1  0
  4 21  1  0
 21 22  2  0
 21 23  1  0
 23 24  1  6
 24 25  1  0
 25 26  1  0
 26 27  1  0
 27 28  2  0
 28 29  1  0
 29 30  2  0
 30 31  1  0
 31 32  1  0
 32 33  1  0
 32 34  1  0
 32 35  1  0
 29 36  1  0
 28 37  1  0
 26 38  1  0
 26 39  1  0
 25 40  1  0
 40 41  2  0
 40 42  1  0
 42 43  2  0
 43 44  1  0
 44 45  2  0
 45 46  1  0
 45 47  1  0
 47 48  2  0
 47 49  1  0
 44 50  1  0
 43 51  1  0
 24 52  1  0
 24 53  1  0
  3 54  1  0
  3 55  1  0
  2 56  1  6
  1 57  1  0
  1 58  1  0
  1 59  1  0
 23  2  1  0
 31 27  1  0
 48 42  1  0
 14  5  1  0
 48 23  1  0
 14  9  1  0
M  END
>  <cnnaffinities>  (85) 
[6.64661]

>  <score>  (85) 
6.64661

>  <index>  (85) 
87

>  <Smiles>  (85) 
C([C@]1(C(N(c2c(nc(c3c(c(c(c(c23)[H])[H])[H])[H])[H])[H])C(=O)[C@]21C(N(C(c1c(c(nn1C([H])([H])[H])[H])[H])([H])[H])C(=O)c1c(c(c(F)c(c21)[H])[H])[H])([H])[H])([H])[H])[H])([H])([H])[H]

>  <h>  (85) 
<NA>

>  <Training>  (85) 
True

>  <Success>  (85) 
True

>  <enamine_searched>  (85) 
False

>  <enamine_id>  (85) 
nan

$$$$

     RDKit          3D

 40 42  0  0  0  0  0  0  0  0999 V2000
   -5.5907   -2.9751  -21.6794 O   0  0  0  0  0  0  0  0  0  0  0  0
   -6.7934   -2.7996  -21.7766 C   0  0  0  0  0  0  0  0  0  0  0  0
   -7.4236   -1.4826  -21.2560 C   0  0  0  0  0  0  0  0  0  0  0  0
   -6.5826   -0.8239  -20.1823 C   0  0  0  0  0  0  0  0  0  0  0  0
   -6.8733   -1.0420  -18.8621 C   0  0  0  0  0  0  0  0  0  0  0  0
   -6.1833   -0.5493  -17.8005 N   0  0  0  0  0  0  0  0  0  0  0  0
   -5.1576    0.2225  -18.0646 C   0  0  0  0  0  0  0  0  0  0  0  0
   -4.7210    0.5333  -19.3805 C   0  0  0  0  0  0  0  0  0  0  0  0
   -3.5917    1.3601  -19.6196 C   0  0  0  0  0  0  0  0  0  0  0  0
   -3.1888    1.6341  -20.8979 C   0  0  0  0  0  0  0  0  0  0  0  0
   -3.8990    1.0894  -21.9913 C   0  0  0  0  0  0  0  0  0  0  0  0
   -4.9961    0.2896  -21.7855 C   0  0  0  0  0  0  0  0  0  0  0  0
   -5.4443   -0.0094  -20.4733 C   0  0  0  0  0  0  0  0  0  0  0  0
   -5.5175   -0.1372  -22.6364 H   0  0  0  0  0  0  0  0  0  0  0  0
   -3.5695    1.3086  -23.0030 H   0  0  0  0  0  0  0  0  0  0  0  0
   -2.3270    2.2707  -21.0852 H   0  0  0  0  0  0  0  0  0  0  0  0
   -3.0548    1.7755  -18.7683 H   0  0  0  0  0  0  0  0  0  0  0  0
   -4.6027    0.6282  -17.2155 H   0  0  0  0  0  0  0  0  0  0  0  0
   -7.7195   -1.6693  -18.5862 H   0  0  0  0  0  0  0  0  0  0  0  0
   -8.4254   -1.6855  -20.8474 H   0  0  0  0  0  0  0  0  0  0  0  0
   -7.5645   -0.7902  -22.0964 H   0  0  0  0  0  0  0  0  0  0  0  0
   -7.6217   -3.7654  -22.3131 N   0  0  0  0  0  0  0  0  0  0  0  0
   -7.2643   -5.1760  -22.1482 C   0  0  0  0  0  0  0  0  0  0  0  0
   -7.5552   -6.0025  -23.3927 C   0  0  0  0  0  0  0  0  0  0  0  0
   -8.9998   -5.8131  -23.8415 C   0  0  0  0  0  0  0  0  0  0  0  0
   -9.3380   -6.6252  -25.0774 C   0  0  0  0  0  0  0  0  0  0  0  0
   -8.5096   -6.2790  -26.1060 F   0  0  0  0  0  0  0  0  0  0  0  0
   -9.1474   -7.9589  -24.8533 F   0  0  0  0  0  0  0  0  0  0  0  0
  -10.3710   -6.4887  -25.4265 H   0  0  0  0  0  0  0  0  0  0  0  0
   -9.2790   -4.3318  -24.0555 C   0  0  0  0  0  0  0  0  0  0  0  0
   -8.9715   -3.5174  -22.8025 C   0  0  0  0  0  0  0  0  0  0  0  0
   -9.7203   -3.7516  -22.0319 H   0  0  0  0  0  0  0  0  0  0  0  0
   -9.0772   -2.4581  -23.0364 H   0  0  0  0  0  0  0  0  0  0  0  0
   -8.6825   -3.9674  -24.8959 H   0  0  0  0  0  0  0  0  0  0  0  0
  -10.3268   -4.1838  -24.3388 H   0  0  0  0  0  0  0  0  0  0  0  0
   -9.6679   -6.1931  -23.0641 H   0  0  0  0  0  0  0  0  0  0  0  0
   -6.8795   -5.7050  -24.1983 H   0  0  0  0  0  0  0  0  0  0  0  0
   -7.3566   -7.0618  -23.1956 H   0  0  0  0  0  0  0  0  0  0  0  0
   -6.2078   -5.2333  -21.8912 H   0  0  0  0  0  0  0  0  0  0  0  0
   -7.8184   -5.6140  -21.3059 H   0  0  0  0  0  0  0  0  0  0  0  0
  1  2  2  0
  2  3  1  0
  3  4  1  0
  4  5  2  0
  5  6  1  0
  6  7  2  0
  7  8  1  0
  8  9  2  0
  9 10  1  0
 10 11  2  0
 11 12  1  0
 12 13  2  0
 12 14  1  0
 11 15  1  0
 10 16  1  0
  9 17  1  0
  7 18  1  0
  5 19  1  0
  3 20  1  0
  3 21  1  0
  2 22  1  0
 22 23  1  0
 23 24  1  0
 24 25  1  0
 25 26  1  0
 26 27  1  0
 26 28  1  0
 26 29  1  0
 25 30  1  0
 30 31  1  0
 31 32  1  0
 31 33  1  0
 30 34  1  0
 30 35  1  0
 25 36  1  0
 24 37  1  0
 24 38  1  0
 23 39  1  0
 23 40  1  0
 13  4  1  0
 31 22  1  0
 13  8  1  0
M  END
>  <cnnaffinities>  (86) 
[5.4033, 5.33158, 5.3561, 5.35609, 5.35545]

>  <score>  (86) 
5.4033

>  <index>  (86) 
88

>  <Smiles>  (86) 
O=C(C(c1c(nc(c2c(c(c(c(c12)[H])[H])[H])[H])[H])[H])([H])[H])N1C(C(C(C(F)(F)[H])(C(C1([H])[H])([H])[H])[H])([H])[H])([H])[H]

>  <h>  (86) 
<NA>

>  <Training>  (86) 
True

>  <Success>  (86) 
True

>  <enamine_searched>  (86) 
False

>  <enamine_id>  (86) 
nan

$$$$

     RDKit          3D

 43 45  0  0  0  0  0  0  0  0999 V2000
   -9.7538   -4.1864  -25.8456 C   0  0  0  0  0  0  0  0  0  0  0  0
   -8.2272   -4.2037  -25.7062 C   0  0  0  0  0  0  0  0  0  0  0  0
   -7.6340   -4.8422  -26.9676 C   0  0  0  0  0  0  0  0  0  0  0  0
   -8.0336   -5.8504  -27.1256 H   0  0  0  0  0  0  0  0  0  0  0  0
   -7.8641   -4.2552  -27.8636 H   0  0  0  0  0  0  0  0  0  0  0  0
   -6.5443   -4.9312  -26.9021 H   0  0  0  0  0  0  0  0  0  0  0  0
   -7.6876   -2.7680  -25.5708 C   0  0  0  0  0  0  0  0  0  0  0  0
   -7.7329   -2.2025  -24.1508 C   0  0  0  0  0  0  0  0  0  0  0  0
   -7.0456   -3.0688  -23.1994 N   0  0  0  0  0  0  0  0  0  0  0  0
   -6.6939   -2.6853  -21.9283 C   0  0  0  0  0  0  0  0  0  0  0  0
   -5.8715   -3.3163  -21.2794 O   0  0  0  0  0  0  0  0  0  0  0  0
   -7.3943   -1.4609  -21.2877 C   0  0  0  0  0  0  0  0  0  0  0  0
   -6.5764   -0.8279  -20.1839 C   0  0  0  0  0  0  0  0  0  0  0  0
   -6.8718   -1.0472  -18.8646 C   0  0  0  0  0  0  0  0  0  0  0  0
   -6.1843   -0.5490  -17.7993 N   0  0  0  0  0  0  0  0  0  0  0  0
   -5.1591    0.2217  -18.0637 C   0  0  0  0  0  0  0  0  0  0  0  0
   -4.7210    0.5342  -19.3784 C   0  0  0  0  0  0  0  0  0  0  0  0
   -3.5932    1.3599  -19.6223 C   0  0  0  0  0  0  0  0  0  0  0  0
   -3.1930    1.6374  -20.8997 C   0  0  0  0  0  0  0  0  0  0  0  0
   -3.9077    1.0955  -21.9937 C   0  0  0  0  0  0  0  0  0  0  0  0
   -5.0022    0.2970  -21.7851 C   0  0  0  0  0  0  0  0  0  0  0  0
   -5.4455   -0.0070  -20.4726 C   0  0  0  0  0  0  0  0  0  0  0  0
   -5.5369   -0.1093  -22.6402 H   0  0  0  0  0  0  0  0  0  0  0  0
   -3.5841    1.3204  -23.0052 H   0  0  0  0  0  0  0  0  0  0  0  0
   -2.3328    2.2747  -21.0895 H   0  0  0  0  0  0  0  0  0  0  0  0
   -3.0545    1.7744  -18.7714 H   0  0  0  0  0  0  0  0  0  0  0  0
   -4.6029    0.6284  -17.2146 H   0  0  0  0  0  0  0  0  0  0  0  0
   -7.7211   -1.6710  -18.5892 H   0  0  0  0  0  0  0  0  0  0  0  0
   -8.3331   -1.8263  -20.8470 H   0  0  0  0  0  0  0  0  0  0  0  0
   -7.6872   -0.7021  -22.0237 H   0  0  0  0  0  0  0  0  0  0  0  0
   -6.6850   -4.4080  -23.6633 C   0  0  0  0  0  0  0  0  0  0  0  0
   -7.8330   -5.0231  -24.4570 C   0  0  0  0  0  0  0  0  0  0  0  0
   -7.5789   -6.0465  -24.7499 H   0  0  0  0  0  0  0  0  0  0  0  0
   -8.6880   -5.1209  -23.7801 H   0  0  0  0  0  0  0  0  0  0  0  0
   -6.4512   -5.0175  -22.7933 H   0  0  0  0  0  0  0  0  0  0  0  0
   -5.7713   -4.3815  -24.2696 H   0  0  0  0  0  0  0  0  0  0  0  0
   -8.7721   -2.0375  -23.8458 H   0  0  0  0  0  0  0  0  0  0  0  0
   -7.2553   -1.2163  -24.1663 H   0  0  0  0  0  0  0  0  0  0  0  0
   -8.2547   -2.1090  -26.2345 H   0  0  0  0  0  0  0  0  0  0  0  0
   -6.6579   -2.7140  -25.9419 H   0  0  0  0  0  0  0  0  0  0  0  0
  -10.2338   -3.6982  -24.9917 H   0  0  0  0  0  0  0  0  0  0  0  0
  -10.1573   -5.2026  -25.9151 H   0  0  0  0  0  0  0  0  0  0  0  0
  -10.0657   -3.6495  -26.7480 H   0  0  0  0  0  0  0  0  0  0  0  0
  1  2  1  0
  2  3  1  0
  3  4  1  0
  3  5  1  0
  3  6  1  0
  2  7  1  0
  7  8  1  0
  8  9  1  0
  9 10  1  0
 10 11  2  0
 10 12  1  0
 12 13  1  0
 13 14  2  0
 14 15  1  0
 15 16  2  0
 16 17  1  0
 17 18  2  0
 18 19  1  0
 19 20  2  0
 20 21  1  0
 21 22  2  0
 21 23  1  0
 20 24  1  0
 19 25  1  0
 18 26  1  0
 16 27  1  0
 14 28  1  0
 12 29  1  0
 12 30  1  0
  9 31  1  0
 31 32  1  0
 32 33  1  0
 32 34  1  0
 31 35  1  0
 31 36  1  0
  8 37  1  0
  8 38  1  0
  7 39  1  0
  7 40  1  0
  1 41  1  0
  1 42  1  0
  1 43  1  0
 32  2  1  0
 22 13  1  0
 22 17  1  0
M  END
>  <cnnaffinities>  (87) 
[5.27805, 5.16129, 5.1443, 5.14429, 5.14429, 5.19901, 5.19894, 5.19893, 5.1094, 5.10939, 5.10939, 5.1094]

>  <score>  (87) 
5.27805

>  <index>  (87) 
89

>  <Smiles>  (87) 
C(C1(C([H])([H])[H])C(C(N(C(=O)C(c2c(nc(c3c(c(c(c(c23)[H])[H])[H])[H])[H])[H])([H])[H])C(C1([H])[H])([H])[H])([H])[H])([H])[H])([H])([H])[H]

>  <h>  (87) 
<NA>

>  <Training>  (87) 
True

>  <Success>  (87) 
True

>  <enamine_searched>  (87) 
False

>  <enamine_id>  (87) 
nan

$$$$

     RDKit          3D

 64 68  0  0  0  0  0  0  0  0999 V2000
   -4.9806   -1.6675  -29.1252 C   0  0  0  0  0  0  0  0  0  0  0  0
   -5.2005   -1.4875  -27.7075 N   0  0  0  0  0  0  0  0  0  0  0  0
   -4.7616   -0.3538  -27.1090 C   0  0  0  0  0  0  0  0  0  0  0  0
   -3.9979    0.4346  -27.6467 O   0  0  0  0  0  0  0  0  0  0  0  0
   -5.2729    0.0073  -25.7177 C   0  0  0  0  0  0  0  0  0  0  0  0
   -6.4406   -0.6853  -25.2226 N   0  0  0  0  0  0  0  0  0  0  0  0
   -6.2965   -1.7581  -24.2590 C   0  0  0  0  0  0  0  0  0  0  0  0
   -7.5003   -1.8714  -23.2707 C   0  0  2  0  0  0  0  0  0  0  0  0
   -7.2980   -0.9362  -22.0667 C   0  0  0  0  0  0  0  0  0  0  0  0
   -7.7065    0.1902  -21.9044 O   0  0  0  0  0  0  0  0  0  0  0  0
   -6.5424   -1.6336  -21.1481 N   0  0  0  0  0  0  0  0  0  0  0  0
   -6.0055   -0.9711  -20.0306 C   0  0  0  0  0  0  0  0  0  0  0  0
   -6.4711   -1.2377  -18.7700 C   0  0  0  0  0  0  0  0  0  0  0  0
   -6.0220   -0.6337  -17.6455 N   0  0  0  0  0  0  0  0  0  0  0  0
   -5.0658    0.2549  -17.7826 C   0  0  0  0  0  0  0  0  0  0  0  0
   -4.4694    0.5964  -19.0296 C   0  0  0  0  0  0  0  0  0  0  0  0
   -3.3874    1.5135  -19.1204 C   0  0  0  0  0  0  0  0  0  0  0  0
   -2.8783    1.8724  -20.3384 C   0  0  0  0  0  0  0  0  0  0  0  0
   -3.4451    1.3528  -21.5262 C   0  0  0  0  0  0  0  0  0  0  0  0
   -4.4748    0.4494  -21.4622 C   0  0  0  0  0  0  0  0  0  0  0  0
   -4.9943    0.0222  -20.2045 C   0  0  0  0  0  0  0  0  0  0  0  0
   -4.9225    0.0895  -22.3829 H   0  0  0  0  0  0  0  0  0  0  0  0
   -3.0672    1.6739  -22.4941 H   0  0  0  0  0  0  0  0  0  0  0  0
   -2.0548    2.5788  -20.4074 H   0  0  0  0  0  0  0  0  0  0  0  0
   -2.9830    1.9269  -18.2010 H   0  0  0  0  0  0  0  0  0  0  0  0
   -4.7181    0.7543  -16.8790 H   0  0  0  0  0  0  0  0  0  0  0  0
   -7.2688   -1.9680  -18.6457 H   0  0  0  0  0  0  0  0  0  0  0  0
   -6.3553   -3.0341  -21.4877 C   0  0  0  0  0  0  0  0  0  0  0  0
   -7.4500   -3.2390  -22.5466 C   0  0  2  0  0  0  0  0  0  0  0  0
   -7.3009   -4.4110  -23.5057 C   0  0  0  0  0  0  0  0  0  0  0  0
   -7.7602   -5.9707  -22.8032 S   0  0  0  0  0  0  0  0  0  0  0  0
   -8.8020   -5.7917  -21.8061 O   0  0  0  0  0  0  0  0  0  0  0  0
   -7.9414   -6.9215  -23.8877 O   0  0  0  0  0  0  0  0  0  0  0  0
   -6.3165   -6.3371  -22.0252 N   0  0  0  0  0  0  0  0  0  0  0  0
   -6.2495   -7.7628  -21.7196 C   0  0  0  0  0  0  0  0  0  0  0  0
   -7.0016   -8.0090  -20.9680 H   0  0  0  0  0  0  0  0  0  0  0  0
   -5.2449   -8.0051  -21.3712 H   0  0  0  0  0  0  0  0  0  0  0  0
   -6.4503   -8.3238  -22.6344 H   0  0  0  0  0  0  0  0  0  0  0  0
   -6.2704   -5.7654  -21.1841 H   0  0  0  0  0  0  0  0  0  0  0  0
   -7.9211   -4.2830  -24.3995 H   0  0  0  0  0  0  0  0  0  0  0  0
   -6.2681   -4.5641  -23.8256 H   0  0  0  0  0  0  0  0  0  0  0  0
   -8.3899   -3.3535  -22.0043 H   0  0  0  0  0  0  0  0  0  0  0  0
   -5.3572   -3.2169  -21.9153 H   0  0  0  0  0  0  0  0  0  0  0  0
   -6.4586   -3.6539  -20.5951 H   0  0  0  0  0  0  0  0  0  0  0  0
   -8.8065   -1.5728  -23.9401 C   0  0  0  0  0  0  0  0  0  0  0  0
  -10.0054   -1.9234  -23.3114 C   0  0  0  0  0  0  0  0  0  0  0  0
  -11.2044   -1.5429  -23.8682 C   0  0  0  0  0  0  0  0  0  0  0  0
  -12.3281   -1.9148  -23.2344 F   0  0  0  0  0  0  0  0  0  0  0  0
  -11.2749   -0.7876  -25.0294 C   0  0  0  0  0  0  0  0  0  0  0  0
  -10.0946   -0.4921  -25.6710 C   0  0  0  0  0  0  0  0  0  0  0  0
   -8.8664   -0.8435  -25.1252 C   0  0  0  0  0  0  0  0  0  0  0  0
   -7.6350   -0.3293  -25.7946 C   0  0  0  0  0  0  0  0  0  0  0  0
   -7.6690    0.3959  -26.7822 O   0  0  0  0  0  0  0  0  0  0  0  0
  -10.0821    0.0186  -26.6150 H   0  0  0  0  0  0  0  0  0  0  0  0
  -12.2087   -0.4000  -25.4162 H   0  0  0  0  0  0  0  0  0  0  0  0
  -10.0351   -2.4596  -22.3753 H   0  0  0  0  0  0  0  0  0  0  0  0
   -5.3750   -1.5893  -23.6813 H   0  0  0  0  0  0  0  0  0  0  0  0
   -6.1577   -2.7068  -24.7980 H   0  0  0  0  0  0  0  0  0  0  0  0
   -4.4472   -0.1112  -25.0071 H   0  0  0  0  0  0  0  0  0  0  0  0
   -5.5053    1.0748  -25.7815 H   0  0  0  0  0  0  0  0  0  0  0  0
   -5.8464   -2.0925  -27.2248 H   0  0  0  0  0  0  0  0  0  0  0  0
   -4.4442   -0.7861  -29.4748 H   0  0  0  0  0  0  0  0  0  0  0  0
   -4.3724   -2.5509  -29.3331 H   0  0  0  0  0  0  0  0  0  0  0  0
   -5.9289   -1.7376  -29.6669 H   0  0  0  0  0  0  0  0  0  0  0  0
  1  2  1  0
  2  3  1  0
  3  4  2  0
  3  5  1  0
  5  6  1  0
  6  7  1  0
  8  7  1  6
  8  9  1  0
  9 10  2  0
  9 11  1  0
 11 12  1  0
 12 13  2  0
 13 14  1  0
 14 15  2  0
 15 16  1  0
 16 17  2  0
 17 18  1  0
 18 19  2  0
 19 20  1  0
 20 21  2  0
 20 22  1  0
 19 23  1  0
 18 24  1  0
 17 25  1  0
 15 26  1  0
 13 27  1  0
 11 28  1  0
 28 29  1  0
 29 30  1  0
 30 31  1  0
 31 32  2  0
 31 33  2  0
 31 34  1  0
 34 35  1  0
 35 36  1  0
 35 37  1  0
 35 38  1  0
 34 39  1  0
 30 40  1  0
 30 41  1  0
 29 42  1  1
 28 43  1  0
 28 44  1  0
  8 45  1  0
 45 46  2  0
 46 47  1  0
 47 48  1  0
 47 49  2  0
 49 50  1  0
 50 51  2  0
 51 52  1  0
 52 53  2  0
 50 54  1  0
 49 55  1  0
 46 56  1  0
  7 57  1  0
  7 58  1  0
  5 59  1  0
  5 60  1  0
  2 61  1  0
  1 62  1  0
  1 63  1  0
  1 64  1  0
 52  6  1  0
 29  8  1  0
 51 45  1  0
 21 12  1  0
 21 16  1  0
M  END
>  <cnnaffinities>  (88) 
[6.17279]

>  <score>  (88) 
6.17279

>  <index>  (88) 
90

>  <Smiles>  (88) 
C(N(C(=O)C(N1C([C@@]2(C(=O)N(c3c(nc(c4c(c(c(c(c34)[H])[H])[H])[H])[H])[H])C([C@@]2(C(S(=O)(=O)N(C([H])([H])[H])[H])([H])[H])[H])([H])[H])c2c(c(F)c(c(c2C1=O)[H])[H])[H])([H])[H])([H])[H])[H])([H])([H])[H]

>  <h>  (88) 
<NA>

>  <Training>  (88) 
True

>  <Success>  (88) 
True

>  <enamine_searched>  (88) 
False

>  <enamine_id>  (88) 
nan

$$$$

     RDKit          3D

 66 71  0  0  0  0  0  0  0  0999 V2000
   -5.8129   -0.1852  -29.5322 C   0  0  0  0  0  0  0  0  0  0  0  0
   -5.7121    0.2332  -28.1521 N   0  0  0  0  0  0  0  0  0  0  0  0
   -5.0884   -0.5479  -27.2287 C   0  0  0  0  0  0  0  0  0  0  0  0
   -4.4278   -1.5356  -27.5057 O   0  0  0  0  0  0  0  0  0  0  0  0
   -5.2687   -0.0629  -25.7741 C   0  0  0  0  0  0  0  0  0  0  0  0
   -6.4720   -0.5757  -25.1224 N   0  0  0  0  0  0  0  0  0  0  0  0
   -6.4098   -1.8181  -24.3599 C   0  0  0  0  0  0  0  0  0  0  0  0
   -7.5116   -1.9075  -23.2565 C   0  0  2  0  0  0  0  0  0  0  0  0
   -7.1508   -1.0620  -22.0246 C   0  0  0  0  0  0  0  0  0  0  0  0
   -7.5231    0.0614  -21.7531 O   0  0  0  0  0  0  0  0  0  0  0  0
   -6.3406   -1.8289  -21.2074 N   0  0  0  0  0  0  0  0  0  0  0  0
   -5.7968   -1.2316  -20.0539 C   0  0  0  0  0  0  0  0  0  0  0  0
   -6.2510   -1.5536  -18.8012 C   0  0  0  0  0  0  0  0  0  0  0  0
   -5.8490   -0.9380  -17.6642 N   0  0  0  0  0  0  0  0  0  0  0  0
   -4.9670    0.0286  -17.7734 C   0  0  0  0  0  0  0  0  0  0  0  0
   -4.3981    0.4498  -19.0073 C   0  0  0  0  0  0  0  0  0  0  0  0
   -3.4264    1.4858  -19.0793 C   0  0  0  0  0  0  0  0  0  0  0  0
   -2.9247    1.8807  -20.2901 C   0  0  0  0  0  0  0  0  0  0  0  0
   -3.3563    1.2536  -21.4816 C   0  0  0  0  0  0  0  0  0  0  0  0
   -4.2746    0.2379  -21.4312 C   0  0  0  0  0  0  0  0  0  0  0  0
   -4.8296   -0.1863  -20.1894 C   0  0  0  0  0  0  0  0  0  0  0  0
   -4.5957   -0.2485  -22.3466 H   0  0  0  0  0  0  0  0  0  0  0  0
   -2.9575    1.5816  -22.4382 H   0  0  0  0  0  0  0  0  0  0  0  0
   -2.1919    2.6800  -20.3491 H   0  0  0  0  0  0  0  0  0  0  0  0
   -3.0959    1.9584  -18.1567 H   0  0  0  0  0  0  0  0  0  0  0  0
   -4.6617    0.5281  -16.8531 H   0  0  0  0  0  0  0  0  0  0  0  0
   -7.0071   -2.3295  -18.6825 H   0  0  0  0  0  0  0  0  0  0  0  0
   -6.3283   -3.2359  -21.5889 C   0  0  0  0  0  0  0  0  0  0  0  0
   -7.5123   -3.2923  -22.5660 C   0  0  2  0  0  0  0  0  0  0  0  0
   -7.5905   -4.5135  -23.4843 C   0  0  0  0  0  0  0  0  0  0  0  0
   -7.7491   -5.7679  -22.7661 N   0  0  0  0  0  0  0  0  0  0  0  0
   -6.6289   -6.4504  -22.3193 C   0  0  0  0  0  0  0  0  0  0  0  0
   -5.4980   -6.6546  -23.1426 C   0  0  0  0  0  0  0  0  0  0  0  0
   -4.4497   -7.3492  -22.7342 N   0  0  0  0  0  0  0  0  0  0  0  0
   -4.5054   -7.8562  -21.4977 C   0  0  0  0  0  0  0  0  0  0  0  0
   -5.6124   -7.6652  -20.6906 C   0  0  0  0  0  0  0  0  0  0  0  0
   -6.6743   -6.9635  -21.0929 N   0  0  0  0  0  0  0  0  0  0  0  0
   -5.6780   -8.1051  -19.6929 H   0  0  0  0  0  0  0  0  0  0  0  0
   -3.6380   -8.4155  -21.1509 H   0  0  0  0  0  0  0  0  0  0  0  0
   -5.4581   -6.2652  -24.1597 H   0  0  0  0  0  0  0  0  0  0  0  0
   -8.4651   -5.7562  -22.0492 H   0  0  0  0  0  0  0  0  0  0  0  0
   -8.4279   -4.3864  -24.1814 H   0  0  0  0  0  0  0  0  0  0  0  0
   -6.6854   -4.5936  -24.0892 H   0  0  0  0  0  0  0  0  0  0  0  0
   -8.4229   -3.2892  -21.9607 H   0  0  0  0  0  0  0  0  0  0  0  0
   -5.3930   -3.5092  -22.0988 H   0  0  0  0  0  0  0  0  0  0  0  0
   -6.4312   -3.8930  -20.7205 H   0  0  0  0  0  0  0  0  0  0  0  0
   -8.8399   -1.4918  -23.8221 C   0  0  0  0  0  0  0  0  0  0  0  0
  -10.0497   -1.7772  -23.1724 C   0  0  0  0  0  0  0  0  0  0  0  0
  -11.2577   -1.4834  -23.7809 C   0  0  0  0  0  0  0  0  0  0  0  0
  -12.7127   -1.9813  -22.9538 Cl  0  0  0  0  0  0  0  0  0  0  0  0
  -11.2908   -0.8544  -25.0278 C   0  0  0  0  0  0  0  0  0  0  0  0
  -10.0999   -0.4712  -25.5970 C   0  0  0  0  0  0  0  0  0  0  0  0
   -8.8848   -0.7260  -24.9835 C   0  0  0  0  0  0  0  0  0  0  0  0
   -7.6669   -0.0920  -25.5560 C   0  0  0  0  0  0  0  0  0  0  0  0
   -7.7467    0.8211  -26.3797 O   0  0  0  0  0  0  0  0  0  0  0  0
  -10.0972    0.0642  -26.5276 H   0  0  0  0  0  0  0  0  0  0  0  0
  -12.1928   -0.6151  -25.5722 H   0  0  0  0  0  0  0  0  0  0  0  0
  -10.0646   -2.1480  -22.1554 H   0  0  0  0  0  0  0  0  0  0  0  0
   -5.4124   -1.8914  -23.9117 H   0  0  0  0  0  0  0  0  0  0  0  0
   -6.5246   -2.6666  -25.0485 H   0  0  0  0  0  0  0  0  0  0  0  0
   -4.3925   -0.3899  -25.2121 H   0  0  0  0  0  0  0  0  0  0  0  0
   -5.3112    1.0302  -25.7395 H   0  0  0  0  0  0  0  0  0  0  0  0
   -6.4501    0.8316  -27.7968 H   0  0  0  0  0  0  0  0  0  0  0  0
   -6.5012   -1.0285  -29.6637 H   0  0  0  0  0  0  0  0  0  0  0  0
   -6.1778    0.6615  -30.1180 H   0  0  0  0  0  0  0  0  0  0  0  0
   -4.8352   -0.4810  -29.9193 H   0  0  0  0  0  0  0  0  0  0  0  0
  1  2  1  0
  2  3  1  0
  3  4  2  0
  3  5  1  0
  5  6  1  0
  6  7  1  0
  8  7  1  6
  8  9  1  0
  9 10  2  0
  9 11  1  0
 11 12  1  0
 12 13  2  0
 13 14  1  0
 14 15  2  0
 15 16  1  0
 16 17  2  0
 17 18  1  0
 18 19  2  0
 19 20  1  0
 20 21  2  0
 20 22  1  0
 19 23  1  0
 18 24  1  0
 17 25  1  0
 15 26  1  0
 13 27  1  0
 11 28  1  0
 28 29  1  0
 29 30  1  0
 30 31  1  0
 31 32  1  0
 32 33  2  0
 33 34  1  0
 34 35  2  0
 35 36  1  0
 36 37  2  0
 36 38  1  0
 35 39  1  0
 33 40  1  0
 31 41  1  0
 30 42  1  0
 30 43  1  0
 29 44  1  1
 28 45  1  0
 28 46  1  0
  8 47  1  0
 47 48  2  0
 48 49  1  0
 49 50  1  0
 49 51  2  0
 51 52  1  0
 52 53  2  0
 53 54  1  0
 54 55  2  0
 52 56  1  0
 51 57  1  0
 48 58  1  0
  7 59  1  0
  7 60  1  0
  5 61  1  0
  5 62  1  0
  2 63  1  0
  1 64  1  0
  1 65  1  0
  1 66  1  0
 54  6  1  0
 29  8  1  0
 37 32  1  0
 53 47  1  0
 21 12  1  0
 21 16  1  0
M  END
>  <cnnaffinities>  (89) 
[6.2574]

>  <score>  (89) 
6.2574

>  <index>  (89) 
91

>  <Smiles>  (89) 
C(N(C(=O)C(N1C([C@@]2(C(=O)N(c3c(nc(c4c(c(c(c(c34)[H])[H])[H])[H])[H])[H])C([C@@]2(C(N(c2c(nc(c(n2)[H])[H])[H])[H])([H])[H])[H])([H])[H])c2c(c(Cl)c(c(c2C1=O)[H])[H])[H])([H])[H])([H])[H])[H])([H])([H])[H]

>  <h>  (89) 
<NA>

>  <Training>  (89) 
True

>  <Success>  (89) 
True

>  <enamine_searched>  (89) 
False

>  <enamine_id>  (89) 
nan

$$$$

     RDKit          3D

 60 65  0  0  0  0  0  0  0  0999 V2000
  -11.6650   -4.4008  -23.0265 C   0  0  0  0  0  0  0  0  0  0  0  0
  -10.8996   -3.2727  -23.3440 O   0  0  0  0  0  0  0  0  0  0  0  0
  -10.2435   -2.7543  -22.2137 C   0  0  0  0  0  0  0  0  0  0  0  0
   -9.0984   -1.8698  -22.6846 C   0  0  1  0  0  0  0  0  0  0  0  0
   -8.6458   -0.9450  -21.5456 C   0  0  0  0  0  0  0  0  0  0  0  0
   -7.3357   -1.4264  -21.1957 N   0  0  0  0  0  0  0  0  0  0  0  0
   -6.5605   -0.8402  -20.1802 C   0  0  0  0  0  0  0  0  0  0  0  0
   -6.9017   -1.0510  -18.8716 C   0  0  0  0  0  0  0  0  0  0  0  0
   -6.2188   -0.5545  -17.8171 N   0  0  0  0  0  0  0  0  0  0  0  0
   -5.1809    0.2022  -18.0873 C   0  0  0  0  0  0  0  0  0  0  0  0
   -4.7368    0.5144  -19.4053 C   0  0  0  0  0  0  0  0  0  0  0  0
   -3.6156    1.3519  -19.6301 C   0  0  0  0  0  0  0  0  0  0  0  0
   -3.2263    1.6554  -20.9038 C   0  0  0  0  0  0  0  0  0  0  0  0
   -3.9424    1.1475  -22.0120 C   0  0  0  0  0  0  0  0  0  0  0  0
   -5.0348    0.3371  -21.8287 C   0  0  0  0  0  0  0  0  0  0  0  0
   -5.4458   -0.0111  -20.5044 C   0  0  0  0  0  0  0  0  0  0  0  0
   -5.5859   -0.0314  -22.6969 H   0  0  0  0  0  0  0  0  0  0  0  0
   -3.6225    1.4107  -23.0155 H   0  0  0  0  0  0  0  0  0  0  0  0
   -2.3751    2.3066  -21.0739 H   0  0  0  0  0  0  0  0  0  0  0  0
   -3.0939    1.7533  -18.7666 H   0  0  0  0  0  0  0  0  0  0  0  0
   -4.6344    0.6129  -17.2400 H   0  0  0  0  0  0  0  0  0  0  0  0
   -7.7619   -1.6785  -18.6427 H   0  0  0  0  0  0  0  0  0  0  0  0
   -6.8207   -2.3987  -22.0137 C   0  0  0  0  0  0  0  0  0  0  0  0
   -5.7691   -2.9705  -21.8091 O   0  0  0  0  0  0  0  0  0  0  0  0
   -7.8134   -2.6175  -23.1754 C   0  0  1  0  0  0  0  0  0  0  0  0
   -7.9512   -4.1351  -23.3924 C   0  0  0  0  0  0  0  0  0  0  0  0
   -6.6989   -4.6646  -23.9081 N   0  0  0  0  0  0  0  0  0  0  0  0
   -6.2992   -5.9895  -23.4672 C   0  0  0  0  0  0  0  0  0  0  0  0
   -7.1881   -7.0553  -24.0582 C   0  0  0  0  0  0  0  0  0  0  0  0
   -8.4409   -7.5164  -23.5951 C   0  0  0  0  0  0  0  0  0  0  0  0
   -9.0637   -8.2865  -24.4786 N   0  0  0  0  0  0  0  0  0  0  0  0
   -8.2333   -8.2742  -25.5333 N   0  0  0  0  0  0  0  0  0  0  0  0
   -7.0860   -7.5878  -25.3193 C   0  0  0  0  0  0  0  0  0  0  0  0
   -6.2992   -7.5145  -26.0668 H   0  0  0  0  0  0  0  0  0  0  0  0
   -8.4614   -8.8090  -26.3628 H   0  0  0  0  0  0  0  0  0  0  0  0
   -8.9180   -7.2584  -22.6659 H   0  0  0  0  0  0  0  0  0  0  0  0
   -6.3377   -5.9874  -22.3713 H   0  0  0  0  0  0  0  0  0  0  0  0
   -5.2592   -6.1390  -23.7726 H   0  0  0  0  0  0  0  0  0  0  0  0
   -6.1857   -4.1915  -25.0824 C   0  0  0  0  0  0  0  0  0  0  0  0
   -5.4675   -4.8638  -25.8095 O   0  0  0  0  0  0  0  0  0  0  0  0
   -6.5391   -2.7713  -25.3797 C   0  0  0  0  0  0  0  0  0  0  0  0
   -6.0732   -2.2130  -26.5686 C   0  0  0  0  0  0  0  0  0  0  0  0
   -6.2815   -0.8796  -26.8553 C   0  0  0  0  0  0  0  0  0  0  0  0
   -6.9690   -0.1095  -25.9199 C   0  0  0  0  0  0  0  0  0  0  0  0
   -7.2342    1.5798  -26.2339 Cl  0  0  0  0  0  0  0  0  0  0  0  0
   -7.4622   -0.6545  -24.7481 C   0  0  0  0  0  0  0  0  0  0  0  0
   -7.2745   -2.0122  -24.4656 C   0  0  0  0  0  0  0  0  0  0  0  0
   -8.0046   -0.0058  -24.0672 H   0  0  0  0  0  0  0  0  0  0  0  0
   -5.9082   -0.4308  -27.7700 H   0  0  0  0  0  0  0  0  0  0  0  0
   -5.5295   -2.8560  -27.2486 H   0  0  0  0  0  0  0  0  0  0  0  0
   -8.7932   -4.3529  -24.0646 H   0  0  0  0  0  0  0  0  0  0  0  0
   -8.1532   -4.6307  -22.4445 H   0  0  0  0  0  0  0  0  0  0  0  0
   -8.6273    0.1190  -21.8258 H   0  0  0  0  0  0  0  0  0  0  0  0
   -9.3079   -1.0231  -20.6868 H   0  0  0  0  0  0  0  0  0  0  0  0
   -9.5149   -1.2967  -23.5148 H   0  0  0  0  0  0  0  0  0  0  0  0
  -10.9584   -2.1686  -21.6157 H   0  0  0  0  0  0  0  0  0  0  0  0
   -9.8643   -3.5576  -21.5605 H   0  0  0  0  0  0  0  0  0  0  0  0
  -11.0187   -5.2333  -22.6940 H   0  0  0  0  0  0  0  0  0  0  0  0
  -12.3976   -4.1773  -22.2336 H   0  0  0  0  0  0  0  0  0  0  0  0
  -12.2080   -4.7144  -23.9216 H   0  0  0  0  0  0  0  0  0  0  0  0
  1  2  1  0
  2  3  1  0
  3  4  1  0
  4  5  1  0
  5  6  1  0
  6  7  1  0
  7  8  2  0
  8  9  1  0
  9 10  2  0
 10 11  1  0
 11 12  2  0
 12 13  1  0
 13 14  2  0
 14 15  1  0
 15 16  2  0
 15 17  1  0
 14 18  1  0
 13 19  1  0
 12 20  1  0
 10 21  1  0
  8 22  1  0
  6 23  1  0
 23 24  2  0
 23 25  1  0
 25 26  1  6
 26 27  1  0
 27 28  1  0
 28 29  1  0
 29 30  1  0
 30 31  2  0
 31 32  1  0
 32 33  1  0
 33 34  1  0
 32 35  1  0
 30 36  1  0
 28 37  1  0
 28 38  1  0
 27 39  1  0
 39 40  2  0
 39 41  1  0
 41 42  2  0
 42 43  1  0
 43 44  2  0
 44 45  1  0
 44 46  1  0
 46 47  2  0
 46 48  1  0
 43 49  1  0
 42 50  1  0
 26 51  1  0
 26 52  1  0
  5 53  1  0
  5 54  1  0
  4 55  1  6
  3 56  1  0
  3 57  1  0
  1 58  1  0
  1 59  1  0
  1 60  1  0
 25  4  1  0
 33 29  2  0
 47 41  1  0
 16  7  1  0
 47 25  1  0
 16 11  1  0
M  END
>  <cnnaffinities>  (90) 
[6.31092, 6.65403, 6.53908]

>  <score>  (90) 
6.31092

>  <index>  (90) 
92

>  <Smiles>  (90) 
C(OC([C@]1(C(N(c2c(nc(c3c(c(c(c(c23)[H])[H])[H])[H])[H])[H])C(=O)[C@]21C(N(C(c1c(nn(c1[H])[H])[H])([H])[H])C(=O)c1c(c(c(Cl)c(c21)[H])[H])[H])([H])[H])([H])[H])[H])([H])[H])([H])([H])[H]

>  <h>  (90) 
<NA>

>  <Training>  (90) 
True

>  <Success>  (90) 
True

>  <enamine_searched>  (90) 
False

>  <enamine_id>  (90) 
nan

$$$$

     RDKit          3D

 62 67  0  0  0  0  0  0  0  0999 V2000
   -8.1826   -6.7889  -26.7171 C   0  0  0  0  0  0  0  0  0  0  0  0
   -7.0987   -7.3046  -25.7810 C   0  0  0  0  0  0  0  0  0  0  0  0
   -7.6120   -7.4740  -24.4289 N   0  0  0  0  0  0  0  0  0  0  0  0
   -8.6605   -8.2882  -24.2681 N   0  0  0  0  0  0  0  0  0  0  0  0
   -8.8456   -8.3519  -22.9631 C   0  0  0  0  0  0  0  0  0  0  0  0
   -7.8933   -7.5909  -22.2529 C   0  0  0  0  0  0  0  0  0  0  0  0
   -7.1264   -7.0109  -23.2489 C   0  0  0  0  0  0  0  0  0  0  0  0
   -6.1467   -5.8846  -23.2880 C   0  0  0  0  0  0  0  0  0  0  0  0
   -6.7302   -4.7311  -23.9759 N   0  0  0  0  0  0  0  0  0  0  0  0
   -7.9524   -4.1753  -23.4109 C   0  0  0  0  0  0  0  0  0  0  0  0
   -7.8178   -2.6619  -23.1741 C   0  0  2  0  0  0  0  0  0  0  0  0
   -6.8367   -2.4317  -22.0064 C   0  0  0  0  0  0  0  0  0  0  0  0
   -5.7810   -2.9863  -21.7880 O   0  0  0  0  0  0  0  0  0  0  0  0
   -7.3614   -1.4537  -21.2049 N   0  0  0  0  0  0  0  0  0  0  0  0
   -6.5832   -0.8584  -20.1929 C   0  0  0  0  0  0  0  0  0  0  0  0
   -6.9282   -1.0615  -18.8839 C   0  0  0  0  0  0  0  0  0  0  0  0
   -6.2468   -0.5597  -17.8299 N   0  0  0  0  0  0  0  0  0  0  0  0
   -5.2061    0.1928  -18.0969 C   0  0  0  0  0  0  0  0  0  0  0  0
   -4.7566    0.4999  -19.4131 C   0  0  0  0  0  0  0  0  0  0  0  0
   -3.6315    1.3354  -19.6316 C   0  0  0  0  0  0  0  0  0  0  0  0
   -3.2367    1.6456  -20.9023 C   0  0  0  0  0  0  0  0  0  0  0  0
   -3.9471    1.1318  -22.0139 C   0  0  0  0  0  0  0  0  0  0  0  0
   -5.0369    0.3141  -21.8347 C   0  0  0  0  0  0  0  0  0  0  0  0
   -5.4616   -0.0323  -20.5145 C   0  0  0  0  0  0  0  0  0  0  0  0
   -5.5753   -0.0711  -22.7039 H   0  0  0  0  0  0  0  0  0  0  0  0
   -3.6249    1.3955  -23.0174 H   0  0  0  0  0  0  0  0  0  0  0  0
   -2.3843    2.2993  -21.0686 H   0  0  0  0  0  0  0  0  0  0  0  0
   -3.1156    1.7356  -18.7629 H   0  0  0  0  0  0  0  0  0  0  0  0
   -4.6573    0.5993  -17.2477 H   0  0  0  0  0  0  0  0  0  0  0  0
   -7.7907   -1.6840  -18.6470 H   0  0  0  0  0  0  0  0  0  0  0  0
   -8.6660   -0.9792  -21.5963 C   0  0  0  0  0  0  0  0  0  0  0  0
   -9.1319   -1.9917  -22.6605 C   0  0  2  0  0  0  0  0  0  0  0  0
  -10.1840   -2.9450  -22.0741 C   0  0  0  0  0  0  0  0  0  0  0  0
   -9.7952   -3.5249  -21.2303 H   0  0  0  0  0  0  0  0  0  0  0  0
  -10.5459   -3.6503  -22.8270 H   0  0  0  0  0  0  0  0  0  0  0  0
  -11.0513   -2.3799  -21.7141 H   0  0  0  0  0  0  0  0  0  0  0  0
   -9.6197   -1.4730  -23.4914 H   0  0  0  0  0  0  0  0  0  0  0  0
   -8.6179    0.0505  -21.9753 H   0  0  0  0  0  0  0  0  0  0  0  0
   -9.3360   -0.9626  -20.7387 H   0  0  0  0  0  0  0  0  0  0  0  0
   -7.2927   -2.0184  -24.4581 C   0  0  0  0  0  0  0  0  0  0  0  0
   -7.5285   -0.6684  -24.7582 C   0  0  0  0  0  0  0  0  0  0  0  0
   -7.0533   -0.1356  -25.9425 C   0  0  0  0  0  0  0  0  0  0  0  0
   -7.3047    1.1577  -26.2202 F   0  0  0  0  0  0  0  0  0  0  0  0
   -6.3363   -0.8891  -26.8636 C   0  0  0  0  0  0  0  0  0  0  0  0
   -6.0765   -2.2101  -26.5624 C   0  0  0  0  0  0  0  0  0  0  0  0
   -6.5254   -2.7643  -25.3643 C   0  0  0  0  0  0  0  0  0  0  0  0
   -6.1140   -4.1705  -25.0550 C   0  0  0  0  0  0  0  0  0  0  0  0
   -5.2612   -4.7493  -25.7204 O   0  0  0  0  0  0  0  0  0  0  0  0
   -5.5143   -2.8412  -27.2426 H   0  0  0  0  0  0  0  0  0  0  0  0
   -5.9906   -0.4277  -27.7800 H   0  0  0  0  0  0  0  0  0  0  0  0
   -8.0976   -0.0146  -24.1055 H   0  0  0  0  0  0  0  0  0  0  0  0
   -8.7978   -4.3662  -24.0882 H   0  0  0  0  0  0  0  0  0  0  0  0
   -8.1411   -4.6728  -22.4588 H   0  0  0  0  0  0  0  0  0  0  0  0
   -5.2509   -6.1697  -23.8516 H   0  0  0  0  0  0  0  0  0  0  0  0
   -5.8655   -5.6007  -22.2638 H   0  0  0  0  0  0  0  0  0  0  0  0
   -7.8514   -7.4049  -21.1847 H   0  0  0  0  0  0  0  0  0  0  0  0
   -9.6984   -8.9110  -22.6028 H   0  0  0  0  0  0  0  0  0  0  0  0
   -6.2399   -6.6315  -25.7641 H   0  0  0  0  0  0  0  0  0  0  0  0
   -6.7249   -8.2790  -26.1118 H   0  0  0  0  0  0  0  0  0  0  0  0
   -7.8049   -6.7706  -27.7402 H   0  0  0  0  0  0  0  0  0  0  0  0
   -9.0575   -7.4422  -26.6889 H   0  0  0  0  0  0  0  0  0  0  0  0
   -8.5207   -5.7782  -26.4662 H   0  0  0  0  0  0  0  0  0  0  0  0
  1  2  1  0
  2  3  1  0
  3  4  1  0
  4  5  2  0
  5  6  1  0
  6  7  2  0
  7  8  1  0
  8  9  1  0
  9 10  1  0
 11 10  1  6
 11 12  1  0
 12 13  2  0
 12 14  1  0
 14 15  1  0
 15 16  2  0
 16 17  1  0
 17 18  2  0
 18 19  1  0
 19 20  2  0
 20 21  1  0
 21 22  2  0
 22 23  1  0
 23 24  2  0
 23 25  1  0
 22 26  1  0
 21 27  1  0
 20 28  1  0
 18 29  1  0
 16 30  1  0
 14 31  1  0
 31 32  1  0
 32 33  1  0
 33 34  1  0
 33 35  1  0
 33 36  1  0
 32 37  1  6
 31 38  1  0
 31 39  1  0
 11 40  1  0
 40 41  2  0
 41 42  1  0
 42 43  1  0
 42 44  2  0
 44 45  1  0
 45 46  2  0
 46 47  1  0
 47 48  2  0
 45 49  1  0
 44 50  1  0
 41 51  1  0
 10 52  1  0
 10 53  1  0
  8 54  1  0
  8 55  1  0
  6 56  1  0
  5 57  1  0
  2 58  1  0
  2 59  1  0
  1 60  1  0
  1 61  1  0
  1 62  1  0
  7  3  1  0
 47  9  1  0
 32 11  1  0
 46 40  1  0
 24 15  1  0
 24 19  1  0
M  END
>  <cnnaffinities>  (91) 
[6.46925]

>  <score>  (91) 
6.46925

>  <index>  (91) 
93

>  <Smiles>  (91) 
C(C(n1nc(c(c1C(N1C([C@@]2(C(=O)N(c3c(nc(c4c(c(c(c(c34)[H])[H])[H])[H])[H])[H])C([C@@]2(C([H])([H])[H])[H])([H])[H])c2c(c(F)c(c(c2C1=O)[H])[H])[H])([H])[H])([H])[H])[H])[H])([H])[H])([H])([H])[H]

>  <h>  (91) 
<NA>

>  <Training>  (91) 
True

>  <Success>  (91) 
True

>  <enamine_searched>  (91) 
False

>  <enamine_id>  (91) 
nan

$$$$

     RDKit          3D

 66 71  0  0  0  0  0  0  0  0999 V2000
   -5.6149   -0.1185  -29.4331 C   0  0  0  0  0  0  0  0  0  0  0  0
   -5.6197    0.1111  -28.0068 N   0  0  0  0  0  0  0  0  0  0  0  0
   -5.0469   -0.7779  -27.1578 C   0  0  0  0  0  0  0  0  0  0  0  0
   -4.4391   -1.7698  -27.5270 O   0  0  0  0  0  0  0  0  0  0  0  0
   -5.1912   -0.3912  -25.6758 C   0  0  0  0  0  0  0  0  0  0  0  0
   -6.4297   -0.8688  -25.0763 N   0  0  0  0  0  0  0  0  0  0  0  0
   -6.3957   -2.0694  -24.2589 C   0  0  0  0  0  0  0  0  0  0  0  0
   -7.4859   -2.0841  -23.1411 C   0  0  2  0  0  0  0  0  0  0  0  0
   -7.1081   -1.0868  -22.0196 C   0  0  0  0  0  0  0  0  0  0  0  0
   -7.4252    0.0755  -21.9162 O   0  0  0  0  0  0  0  0  0  0  0  0
   -6.3504   -1.7778  -21.0914 N   0  0  0  0  0  0  0  0  0  0  0  0
   -5.7899   -1.0922  -19.9882 C   0  0  0  0  0  0  0  0  0  0  0  0
   -6.2391   -1.3695  -18.7190 C   0  0  0  0  0  0  0  0  0  0  0  0
   -5.8337   -0.7322  -17.5939 N   0  0  0  0  0  0  0  0  0  0  0  0
   -4.9387    0.2178  -17.7273 C   0  0  0  0  0  0  0  0  0  0  0  0
   -4.3647    0.5906  -18.9752 C   0  0  0  0  0  0  0  0  0  0  0  0
   -3.3756    1.6085  -19.0419 C   0  0  0  0  0  0  0  0  0  0  0  0
   -2.8078    1.9559  -20.2374 C   0  0  0  0  0  0  0  0  0  0  0  0
   -3.2024    1.2880  -21.4201 C   0  0  0  0  0  0  0  0  0  0  0  0
   -4.1604    0.3031  -21.3811 C   0  0  0  0  0  0  0  0  0  0  0  0
   -4.7810   -0.0770  -20.1506 C   0  0  0  0  0  0  0  0  0  0  0  0
   -4.4609   -0.1854  -22.3046 H   0  0  0  0  0  0  0  0  0  0  0  0
   -2.7539    1.5677  -22.3707 H   0  0  0  0  0  0  0  0  0  0  0  0
   -2.0563    2.7408  -20.2864 H   0  0  0  0  0  0  0  0  0  0  0  0
   -3.0933    2.1066  -18.1184 H   0  0  0  0  0  0  0  0  0  0  0  0
   -4.6216    0.7514  -16.8271 H   0  0  0  0  0  0  0  0  0  0  0  0
   -6.9991   -2.1370  -18.5701 H   0  0  0  0  0  0  0  0  0  0  0  0
   -6.2955   -3.2188  -21.3573 C   0  0  0  0  0  0  0  0  0  0  0  0
   -7.4871   -3.3906  -22.3065 C   0  0  2  0  0  0  0  0  0  0  0  0
   -7.6736   -4.7089  -23.0759 C   0  0  0  0  0  0  0  0  0  0  0  0
   -6.5275   -5.2208  -23.7998 N   0  0  0  0  0  0  0  0  0  0  0  0
   -5.5058   -5.9496  -23.2798 C   0  0  0  0  0  0  0  0  0  0  0  0
   -5.5370   -6.4466  -21.9657 C   0  0  0  0  0  0  0  0  0  0  0  0
   -4.4779   -7.2471  -21.5985 C   0  0  0  0  0  0  0  0  0  0  0  0
   -3.4016   -7.4503  -22.3732 N   0  0  0  0  0  0  0  0  0  0  0  0
   -3.4580   -6.8835  -23.5710 C   0  0  0  0  0  0  0  0  0  0  0  0
   -4.4553   -6.1701  -24.0873 N   0  0  0  0  0  0  0  0  0  0  0  0
   -2.5931   -7.0327  -24.2200 H   0  0  0  0  0  0  0  0  0  0  0  0
   -4.4576   -7.7285  -20.6166 H   0  0  0  0  0  0  0  0  0  0  0  0
   -6.3487   -6.1969  -21.2869 H   0  0  0  0  0  0  0  0  0  0  0  0
   -6.5018   -5.1341  -24.8043 H   0  0  0  0  0  0  0  0  0  0  0  0
   -8.4780   -4.5524  -23.8082 H   0  0  0  0  0  0  0  0  0  0  0  0
   -8.0426   -5.4809  -22.3885 H   0  0  0  0  0  0  0  0  0  0  0  0
   -8.3724   -3.2998  -21.6677 H   0  0  0  0  0  0  0  0  0  0  0  0
   -6.3968   -3.8019  -20.4356 H   0  0  0  0  0  0  0  0  0  0  0  0
   -5.3483   -3.4819  -21.8476 H   0  0  0  0  0  0  0  0  0  0  0  0
   -8.8156   -1.7234  -23.7530 C   0  0  0  0  0  0  0  0  0  0  0  0
  -10.0487   -2.0714  -23.1800 C   0  0  0  0  0  0  0  0  0  0  0  0
  -11.2360   -1.6079  -23.7240 C   0  0  0  0  0  0  0  0  0  0  0  0
  -12.7118   -2.1019  -22.9238 Cl  0  0  0  0  0  0  0  0  0  0  0  0
  -11.2497   -0.7767  -24.8480 C   0  0  0  0  0  0  0  0  0  0  0  0
  -10.0376   -0.4364  -25.4109 C   0  0  0  0  0  0  0  0  0  0  0  0
   -8.8397   -0.8622  -24.8529 C   0  0  0  0  0  0  0  0  0  0  0  0
   -7.5939   -0.2712  -25.4256 C   0  0  0  0  0  0  0  0  0  0  0  0
   -7.6237    0.7182  -26.1653 O   0  0  0  0  0  0  0  0  0  0  0  0
   -9.9765    0.1960  -26.2860 H   0  0  0  0  0  0  0  0  0  0  0  0
  -12.1692   -0.3790  -25.2622 H   0  0  0  0  0  0  0  0  0  0  0  0
  -10.1217   -2.6817  -22.2880 H   0  0  0  0  0  0  0  0  0  0  0  0
   -5.4007   -2.1054  -23.8070 H   0  0  0  0  0  0  0  0  0  0  0  0
   -6.5197   -2.9509  -24.8946 H   0  0  0  0  0  0  0  0  0  0  0  0
   -4.3365   -0.8115  -25.1336 H   0  0  0  0  0  0  0  0  0  0  0  0
   -5.1633    0.6988  -25.5883 H   0  0  0  0  0  0  0  0  0  0  0  0
   -6.3303    0.7095  -27.6024 H   0  0  0  0  0  0  0  0  0  0  0  0
   -4.5976   -0.3576  -29.7581 H   0  0  0  0  0  0  0  0  0  0  0  0
   -5.9552    0.7961  -29.9312 H   0  0  0  0  0  0  0  0  0  0  0  0
   -6.2657   -0.9554  -29.7165 H   0  0  0  0  0  0  0  0  0  0  0  0
  1  2  1  0
  2  3  1  0
  3  4  2  0
  3  5  1  0
  5  6  1  0
  6  7  1  0
  8  7  1  6
  8  9  1  0
  9 10  2  0
  9 11  1  0
 11 12  1  0
 12 13  2  0
 13 14  1  0
 14 15  2  0
 15 16  1  0
 16 17  2  0
 17 18  1  0
 18 19  2  0
 19 20  1  0
 20 21  2  0
 20 22  1  0
 19 23  1  0
 18 24  1  0
 17 25  1  0
 15 26  1  0
 13 27  1  0
 11 28  1  0
 28 29  1  0
 29 30  1  0
 30 31  1  0
 31 32  1  0
 32 33  2  0
 33 34  1  0
 34 35  2  0
 35 36  1  0
 36 37  2  0
 36 38  1  0
 34 39  1  0
 33 40  1  0
 31 41  1  0
 30 42  1  0
 30 43  1  0
 29 44  1  1
 28 45  1  0
 28 46  1  0
  8 47  1  0
 47 48  2  0
 48 49  1  0
 49 50  1  0
 49 51  2  0
 51 52  1  0
 52 53  2  0
 53 54  1  0
 54 55  2  0
 52 56  1  0
 51 57  1  0
 48 58  1  0
  7 59  1  0
  7 60  1  0
  5 61  1  0
  5 62  1  0
  2 63  1  0
  1 64  1  0
  1 65  1  0
  1 66  1  0
 54  6  1  0
 29  8  1  0
 37 32  1  0
 53 47  1  0
 21 12  1  0
 21 16  1  0
M  END
>  <cnnaffinities>  (92) 
[6.71511, 6.31654]

>  <score>  (92) 
6.71511

>  <index>  (92) 
95

>  <Smiles>  (92) 
C(N(C(=O)C(N1C([C@@]2(C(=O)N(c3c(nc(c4c(c(c(c(c34)[H])[H])[H])[H])[H])[H])C([C@@]2(C(N(c2c(c(nc(n2)[H])[H])[H])[H])([H])[H])[H])([H])[H])c2c(c(Cl)c(c(c2C1=O)[H])[H])[H])([H])[H])([H])[H])[H])([H])([H])[H]

>  <h>  (92) 
<NA>

>  <Training>  (92) 
True

>  <Success>  (92) 
True

>  <enamine_searched>  (92) 
False

>  <enamine_id>  (92) 
nan

$$$$

     RDKit          3D

 66 70  0  0  0  0  0  0  0  0999 V2000
   -8.1443   -5.9456  -27.8837 C   0  0  0  0  0  0  0  0  0  0  0  0
   -8.4891   -4.5742  -27.5618 N   0  0  0  0  0  0  0  0  0  0  0  0
   -7.6573   -3.8208  -26.7870 C   0  0  0  0  0  0  0  0  0  0  0  0
   -6.6074   -4.2474  -26.3241 O   0  0  0  0  0  0  0  0  0  0  0  0
   -8.0899   -2.3662  -26.5587 C   0  0  0  0  0  0  0  0  0  0  0  0
   -8.5856   -2.1355  -25.2301 N   0  0  0  0  0  0  0  0  0  0  0  0
   -7.7608   -1.6077  -24.1670 C   0  0  0  0  0  0  0  0  0  0  0  0
   -8.3861   -2.0793  -22.8036 C   0  0  2  0  0  0  0  0  0  0  0  0
   -7.9592   -1.0943  -21.7132 C   0  0  0  0  0  0  0  0  0  0  0  0
   -8.6025   -0.1532  -21.3075 O   0  0  0  0  0  0  0  0  0  0  0  0
   -6.6912   -1.4837  -21.2964 N   0  0  0  0  0  0  0  0  0  0  0  0
   -6.1002   -0.8958  -20.1527 C   0  0  0  0  0  0  0  0  0  0  0  0
   -6.5854   -1.1839  -18.9018 C   0  0  0  0  0  0  0  0  0  0  0  0
   -6.0704   -0.6866  -17.7535 N   0  0  0  0  0  0  0  0  0  0  0  0
   -5.0607    0.1442  -17.8518 C   0  0  0  0  0  0  0  0  0  0  0  0
   -4.4574    0.5236  -19.0855 C   0  0  0  0  0  0  0  0  0  0  0  0
   -3.3771    1.4424  -19.1450 C   0  0  0  0  0  0  0  0  0  0  0  0
   -2.8160    1.7704  -20.3486 C   0  0  0  0  0  0  0  0  0  0  0  0
   -3.3013    1.1970  -21.5448 C   0  0  0  0  0  0  0  0  0  0  0  0
   -4.3561    0.3162  -21.5145 C   0  0  0  0  0  0  0  0  0  0  0  0
   -4.9693   -0.0303  -20.2812 C   0  0  0  0  0  0  0  0  0  0  0  0
   -4.7437   -0.1079  -22.4349 H   0  0  0  0  0  0  0  0  0  0  0  0
   -2.8448    1.4655  -22.4942 H   0  0  0  0  0  0  0  0  0  0  0  0
   -1.9999    2.4873  -20.3960 H   0  0  0  0  0  0  0  0  0  0  0  0
   -3.0296    1.8943  -18.2199 H   0  0  0  0  0  0  0  0  0  0  0  0
   -4.6656    0.5590  -16.9223 H   0  0  0  0  0  0  0  0  0  0  0  0
   -7.4347   -1.8552  -18.7864 H   0  0  0  0  0  0  0  0  0  0  0  0
   -6.3051   -2.8106  -21.7758 C   0  0  0  0  0  0  0  0  0  0  0  0
   -7.6531   -3.3648  -22.2679 C   0  0  2  0  0  0  0  0  0  0  0  0
   -7.6063   -4.4981  -23.2639 C   0  0  0  0  0  0  0  0  0  0  0  0
   -7.1625   -5.6507  -22.5891 O   0  0  0  0  0  0  0  0  0  0  0  0
   -6.9936   -6.7709  -23.4372 C   0  0  0  0  0  0  0  0  0  0  0  0
   -6.4847   -7.8833  -22.5353 C   0  0  0  0  0  0  0  0  0  0  0  0
   -5.6176   -7.5338  -21.9683 H   0  0  0  0  0  0  0  0  0  0  0  0
   -6.1951   -8.7688  -23.1088 H   0  0  0  0  0  0  0  0  0  0  0  0
   -7.2693   -8.1615  -21.8246 H   0  0  0  0  0  0  0  0  0  0  0  0
   -8.2989   -7.1350  -24.1424 C   0  0  0  0  0  0  0  0  0  0  0  0
   -8.2033   -8.0939  -24.6588 H   0  0  0  0  0  0  0  0  0  0  0  0
   -8.5794   -6.3838  -24.8916 H   0  0  0  0  0  0  0  0  0  0  0  0
   -9.1085   -7.2083  -23.4083 H   0  0  0  0  0  0  0  0  0  0  0  0
   -6.2321   -6.5334  -24.2033 H   0  0  0  0  0  0  0  0  0  0  0  0
   -8.6224   -4.6344  -23.6731 H   0  0  0  0  0  0  0  0  0  0  0  0
   -6.9432   -4.2646  -24.1097 H   0  0  0  0  0  0  0  0  0  0  0  0
   -8.1333   -3.7482  -21.3555 H   0  0  0  0  0  0  0  0  0  0  0  0
   -5.5566   -2.7517  -22.5821 H   0  0  0  0  0  0  0  0  0  0  0  0
   -5.8666   -3.4032  -20.9659 H   0  0  0  0  0  0  0  0  0  0  0  0
   -9.9149   -2.1634  -22.9298 C   0  0  0  0  0  0  0  0  0  0  0  0
  -10.6850   -2.8656  -22.0309 C   0  0  0  0  0  0  0  0  0  0  0  0
  -12.1478   -2.7011  -22.0167 C   0  0  0  0  0  0  0  0  0  0  0  0
  -13.1161   -3.3306  -20.7188 Cl  0  0  0  0  0  0  0  0  0  0  0  0
  -12.6531   -1.9270  -22.9746 C   0  0  0  0  0  0  0  0  0  0  0  0
  -11.4020   -1.3395  -24.0562 C   0  0  0  0  0  0  0  0  0  0  0  0
  -11.3689   -1.1178  -24.0971 C   0  0  0  0  0  0  0  0  0  0  0  0
  -10.0273   -2.4606  -24.9444 C   0  0  0  0  0  0  0  0  0  0  0  0
  -10.4352   -3.5545  -25.3168 O   0  0  0  0  0  0  0  0  0  0  0  0
  -11.5963   -0.8313  -25.2162 H   0  0  0  0  0  0  0  0  0  0  0  0
  -13.7336   -1.6286  -23.0246 H   0  0  0  0  0  0  0  0  0  0  0  0
  -10.2605   -3.5325  -21.2847 H   0  0  0  0  0  0  0  0  0  0  0  0
   -6.7151   -1.9616  -24.2878 H   0  0  0  0  0  0  0  0  0  0  0  0
   -7.7167   -0.5083  -24.1815 H   0  0  0  0  0  0  0  0  0  0  0  0
   -8.8442   -2.0780  -27.2982 H   0  0  0  0  0  0  0  0  0  0  0  0
   -7.2028   -1.7378  -26.7316 H   0  0  0  0  0  0  0  0  0  0  0  0
   -9.4682   -4.3194  -27.5690 H   0  0  0  0  0  0  0  0  0  0  0  0
   -8.4649   -6.6540  -27.1056 H   0  0  0  0  0  0  0  0  0  0  0  0
   -8.5923   -6.2341  -28.8398 H   0  0  0  0  0  0  0  0  0  0  0  0
   -7.0570   -6.0085  -27.9599 H   0  0  0  0  0  0  0  0  0  0  0  0
  1  2  1  0
  2  3  1  0
  3  4  2  0
  3  5  1  0
  5  6  1  0
  6  7  1  0
  8  7  1  6
  8  9  1  0
  9 10  2  0
  9 11  1  0
 11 12  1  0
 12 13  2  0
 13 14  1  0
 14 15  2  0
 15 16  1  0
 16 17  2  0
 17 18  1  0
 18 19  2  0
 19 20  1  0
 20 21  2  0
 20 22  1  0
 19 23  1  0
 18 24  1  0
 17 25  1  0
 15 26  1  0
 13 27  1  0
 11 28  1  0
 28 29  1  0
 29 30  1  0
 30 31  1  0
 31 32  1  0
 32 33  1  0
 33 34  1  0
 33 35  1  0
 33 36  1  0
 32 37  1  0
 37 38  1  0
 37 39  1  0
 37 40  1  0
 32 41  1  0
 30 42  1  0
 30 43  1  0
 29 44  1  1
 28 45  1  0
 28 46  1  0
  8 47  1  0
 47 48  2  0
 48 49  1  0
 49 50  1  0
 49 51  2  0
 51 52  1  0
 52 53  2  0
 53 54  1  0
 54 55  2  0
 52 56  1  0
 51 57  1  0
 48 58  1  0
  7 59  1  0
  7 60  1  0
  5 61  1  0
  5 62  1  0
  2 63  1  0
  1 64  1  0
  1 65  1  0
  1 66  1  0
 54  6  1  0
 29  8  1  0
 53 47  1  0
 21 12  1  0
 21 16  1  0
M  END
>  <cnnaffinities>  (93) 
[7.01536]

>  <score>  (93) 
7.01536

>  <index>  (93) 
96

>  <Smiles>  (93) 
C(N(C(=O)C(N1C([C@@]2(C(=O)N(c3c(nc(c4c(c(c(c(c34)[H])[H])[H])[H])[H])[H])C([C@@]2(C(OC(C([H])([H])[H])(C([H])([H])[H])[H])([H])[H])[H])([H])[H])c2c(c(Cl)c(c(c2C1=O)[H])[H])[H])([H])[H])([H])[H])[H])([H])([H])[H]

>  <h>  (93) 
<NA>

>  <Training>  (93) 
True

>  <Success>  (93) 
True

>  <enamine_searched>  (93) 
False

>  <enamine_id>  (93) 
nan

$$$$

     RDKit          3D

 40 43  0  0  0  0  0  0  0  0999 V2000
   -9.8463   -5.2351  -23.3439 C   0  0  0  0  0  0  0  0  0  0  0  0
  -10.7107   -4.1085  -22.7840 C   0  0  2  0  0  0  0  0  0  0  0  0
  -11.3425   -3.3084  -23.9129 C   0  0  0  0  0  0  0  0  0  0  0  0
  -10.3779   -2.5452  -24.6049 O   0  0  0  0  0  0  0  0  0  0  0  0
   -9.7696   -1.5858  -23.7639 C   0  0  0  0  0  0  0  0  0  0  0  0
   -8.9921   -2.2375  -22.6141 C   0  0  1  0  0  0  0  0  0  0  0  0
   -9.9651   -3.1560  -21.8676 C   0  0  0  0  0  0  0  0  0  0  0  0
  -10.6849   -2.4973  -21.3648 H   0  0  0  0  0  0  0  0  0  0  0  0
   -9.4103   -3.6806  -21.0885 H   0  0  0  0  0  0  0  0  0  0  0  0
   -7.7256   -2.8693  -23.0099 N   0  0  0  0  0  0  0  0  0  0  0  0
   -6.7106   -2.5992  -22.1119 C   0  0  0  0  0  0  0  0  0  0  0  0
   -5.6337   -3.1358  -22.0075 O   0  0  0  0  0  0  0  0  0  0  0  0
   -7.1858   -1.5479  -21.3085 N   0  0  0  0  0  0  0  0  0  0  0  0
   -6.4813   -0.9297  -20.2462 C   0  0  0  0  0  0  0  0  0  0  0  0
   -6.8995   -1.1068  -18.9568 C   0  0  0  0  0  0  0  0  0  0  0  0
   -6.2630   -0.5865  -17.8797 N   0  0  0  0  0  0  0  0  0  0  0  0
   -5.2145    0.1719  -18.1004 C   0  0  0  0  0  0  0  0  0  0  0  0
   -4.7157    0.4810  -19.4009 C   0  0  0  0  0  0  0  0  0  0  0  0
   -3.6040    1.3403  -19.6138 C   0  0  0  0  0  0  0  0  0  0  0  0
   -3.2135    1.6535  -20.8883 C   0  0  0  0  0  0  0  0  0  0  0  0
   -3.9151    1.1440  -22.0068 C   0  0  0  0  0  0  0  0  0  0  0  0
   -4.9920    0.3123  -21.8293 C   0  0  0  0  0  0  0  0  0  0  0  0
   -5.3869   -0.0607  -20.5159 C   0  0  0  0  0  0  0  0  0  0  0  0
   -5.5717   -0.0469  -22.6766 H   0  0  0  0  0  0  0  0  0  0  0  0
   -3.6137    1.4248  -23.0122 H   0  0  0  0  0  0  0  0  0  0  0  0
   -2.3709    2.3192  -21.0566 H   0  0  0  0  0  0  0  0  0  0  0  0
   -3.1017    1.7622  -18.7476 H   0  0  0  0  0  0  0  0  0  0  0  0
   -4.7132    0.5983  -17.2299 H   0  0  0  0  0  0  0  0  0  0  0  0
   -7.7870   -1.7025  -18.7519 H   0  0  0  0  0  0  0  0  0  0  0  0
   -8.5009   -1.2274  -21.5986 C   0  0  0  0  0  0  0  0  0  0  0  0
   -9.1413   -0.3537  -21.0658 O   0  0  0  0  0  0  0  0  0  0  0  0
   -7.7508   -3.8138  -23.3685 H   0  0  0  0  0  0  0  0  0  0  0  0
   -9.1002   -0.9903  -24.3867 H   0  0  0  0  0  0  0  0  0  0  0  0
  -10.5329   -0.9284  -23.3161 H   0  0  0  0  0  0  0  0  0  0  0  0
  -12.1329   -2.6561  -23.5026 H   0  0  0  0  0  0  0  0  0  0  0  0
  -11.7834   -3.9891  -24.6456 H   0  0  0  0  0  0  0  0  0  0  0  0
  -11.5192   -4.5303  -22.1847 H   0  0  0  0  0  0  0  0  0  0  0  0
   -9.1812   -4.8902  -24.1394 H   0  0  0  0  0  0  0  0  0  0  0  0
  -10.4842   -6.0070  -23.7782 H   0  0  0  0  0  0  0  0  0  0  0  0
   -9.2370   -5.7017  -22.5662 H   0  0  0  0  0  0  0  0  0  0  0  0
  1  2  1  0
  2  3  1  0
  3  4  1  0
  4  5  1  0
  5  6  1  0
  6  7  1  0
  7  8  1  0
  7  9  1  0
  6 10  1  6
 10 11  1  0
 11 12  2  0
 11 13  1  0
 13 14  1  0
 14 15  2  0
 15 16  1  0
 16 17  2  0
 17 18  1  0
 18 19  2  0
 19 20  1  0
 20 21  2  0
 21 22  1  0
 22 23  2  0
 22 24  1  0
 21 25  1  0
 20 26  1  0
 19 27  1  0
 17 28  1  0
 15 29  1  0
 13 30  1  0
 30 31  2  0
 10 32  1  0
  5 33  1  0
  5 34  1  0
  3 35  1  0
  3 36  1  0
  2 37  1  1
  1 38  1  0
  1 39  1  0
  1 40  1  0
  7  2  1  0
 23 14  1  0
 30  6  1  0
 23 18  1  0
M  END
>  <cnnaffinities>  (94) 
[5.35505]

>  <score>  (94) 
5.35505

>  <index>  (94) 
97

>  <Smiles>  (94) 
C([C@@]1(C(OC([C@@]2(C1([H])[H])N(C(=O)N(c1c(nc(c3c(c(c(c(c13)[H])[H])[H])[H])[H])[H])C2=O)[H])([H])[H])([H])[H])[H])([H])([H])[H]

>  <h>  (94) 
<NA>

>  <Training>  (94) 
True

>  <Success>  (94) 
True

>  <enamine_searched>  (94) 
False

>  <enamine_id>  (94) 
nan

$$$$
