
     RDKit          3D

 66 71  0  0  0  0  0  0  0  0999 V2000
   -7.6652    3.0675  -22.4727 C   0  0  0  0  0  0  0  0  0  0  0  0
   -8.5446    2.5727  -23.5066 N   0  0  0  0  0  0  0  0  0  0  0  0
   -8.0072    1.9399  -24.5782 C   0  0  0  0  0  0  0  0  0  0  0  0
   -6.8095    1.9264  -24.8184 O   0  0  0  0  0  0  0  0  0  0  0  0
   -9.0404    1.1961  -25.4212 C   0  0  0  0  0  0  0  0  0  0  0  0
   -9.6781    0.1531  -24.6364 N   0  0  0  0  0  0  0  0  0  0  0  0
   -8.8116   -0.9376  -24.2341 C   0  0  0  0  0  0  0  0  0  0  0  0
   -9.2063   -1.5979  -22.8763 C   0  0  2  0  0  0  0  0  0  0  0  0
   -8.6753   -0.7208  -21.7099 C   0  0  0  0  0  0  0  0  0  0  0  0
   -9.2068    0.2740  -21.2512 O   0  0  0  0  0  0  0  0  0  0  0  0
   -7.4736   -1.2465  -21.2854 N   0  0  0  0  0  0  0  0  0  0  0  0
   -6.7139   -0.6929  -20.2196 C   0  0  0  0  0  0  0  0  0  0  0  0
   -7.0317   -0.9620  -18.9122 C   0  0  0  0  0  0  0  0  0  0  0  0
   -6.3091   -0.5361  -17.8438 N   0  0  0  0  0  0  0  0  0  0  0  0
   -5.2311    0.1706  -18.0832 C   0  0  0  0  0  0  0  0  0  0  0  0
   -4.7799    0.5228  -19.3890 C   0  0  0  0  0  0  0  0  0  0  0  0
   -3.6080    1.2960  -19.6144 C   0  0  0  0  0  0  0  0  0  0  0  0
   -3.2242    1.6190  -20.8871 C   0  0  0  0  0  0  0  0  0  0  0  0
   -3.9922    1.1965  -21.9944 C   0  0  0  0  0  0  0  0  0  0  0  0
   -5.1322    0.4529  -21.8022 C   0  0  0  0  0  0  0  0  0  0  0  0
   -5.5476    0.0863  -20.4945 C   0  0  0  0  0  0  0  0  0  0  0  0
   -5.7552    0.1897  -22.6535 H   0  0  0  0  0  0  0  0  0  0  0  0
   -3.6916    1.4677  -23.0012 H   0  0  0  0  0  0  0  0  0  0  0  0
   -2.3328    2.2170  -21.0566 H   0  0  0  0  0  0  0  0  0  0  0  0
   -3.0292    1.6297  -18.7570 H   0  0  0  0  0  0  0  0  0  0  0  0
   -4.6539    0.5047  -17.2183 H   0  0  0  0  0  0  0  0  0  0  0  0
   -7.9070   -1.5656  -18.6825 H   0  0  0  0  0  0  0  0  0  0  0  0
   -7.0760   -2.4600  -21.9816 C   0  0  0  0  0  0  0  0  0  0  0  0
   -8.3901   -2.8981  -22.6501 C   0  0  2  0  0  0  0  0  0  0  0  0
   -8.2366   -3.7988  -23.8846 C   0  0  0  0  0  0  0  0  0  0  0  0
   -7.7754   -5.1296  -23.5668 N   0  0  0  0  0  0  0  0  0  0  0  0
   -6.4816   -5.5354  -23.4668 C   0  0  0  0  0  0  0  0  0  0  0  0
   -5.4118   -4.9401  -24.1669 C   0  0  0  0  0  0  0  0  0  0  0  0
   -4.1795   -5.5475  -24.0272 C   0  0  0  0  0  0  0  0  0  0  0  0
   -3.9713   -6.6032  -23.2326 N   0  0  0  0  0  0  0  0  0  0  0  0
   -5.0462   -7.0667  -22.6120 C   0  0  0  0  0  0  0  0  0  0  0  0
   -6.2905   -6.6144  -22.6882 N   0  0  0  0  0  0  0  0  0  0  0  0
   -4.8980   -7.9381  -21.9743 H   0  0  0  0  0  0  0  0  0  0  0  0
   -3.3082   -5.1879  -24.5776 H   0  0  0  0  0  0  0  0  0  0  0  0
   -5.5475   -4.0792  -24.8130 H   0  0  0  0  0  0  0  0  0  0  0  0
   -8.3933   -5.6695  -22.9818 H   0  0  0  0  0  0  0  0  0  0  0  0
   -7.5518   -3.3430  -24.6057 H   0  0  0  0  0  0  0  0  0  0  0  0
   -9.2131   -3.8793  -24.3825 H   0  0  0  0  0  0  0  0  0  0  0  0
   -8.9326   -3.4704  -21.8933 H   0  0  0  0  0  0  0  0  0  0  0  0
   -6.2786   -2.2741  -22.7203 H   0  0  0  0  0  0  0  0  0  0  0  0
   -6.6887   -3.1949  -21.2679 H   0  0  0  0  0  0  0  0  0  0  0  0
  -10.7191   -1.7527  -22.7902 C   0  0  0  0  0  0  0  0  0  0  0  0
  -11.3373   -2.7115  -21.9666 C   0  0  0  0  0  0  0  0  0  0  0  0
  -12.7149   -2.7389  -21.8261 C   0  0  0  0  0  0  0  0  0  0  0  0
  -13.4532   -3.9236  -20.7814 Cl  0  0  0  0  0  0  0  0  0  0  0  0
  -13.5342   -1.8230  -22.4832 C   0  0  0  0  0  0  0  0  0  0  0  0
  -12.9387   -0.8628  -23.2756 C   0  0  0  0  0  0  0  0  0  0  0  0
  -11.5519   -0.8237  -23.4314 C   0  0  0  0  0  0  0  0  0  0  0  0
  -10.9803    0.2862  -24.2603 C   0  0  0  0  0  0  0  0  0  0  0  0
  -11.6528    1.2717  -24.5582 O   0  0  0  0  0  0  0  0  0  0  0  0
  -13.5348   -0.1051  -23.7747 H   0  0  0  0  0  0  0  0  0  0  0  0
  -14.6104   -1.8653  -22.3453 H   0  0  0  0  0  0  0  0  0  0  0  0
  -10.7673   -3.4376  -21.3983 H   0  0  0  0  0  0  0  0  0  0  0  0
   -7.8014   -0.5208  -24.1465 H   0  0  0  0  0  0  0  0  0  0  0  0
   -8.7867   -1.6789  -25.0414 H   0  0  0  0  0  0  0  0  0  0  0  0
   -9.8344    1.8663  -25.7478 H   0  0  0  0  0  0  0  0  0  0  0  0
   -8.5317    0.7902  -26.2966 H   0  0  0  0  0  0  0  0  0  0  0  0
   -9.4827    2.3242  -23.2338 H   0  0  0  0  0  0  0  0  0  0  0  0
   -7.0883    2.2557  -22.0040 H   0  0  0  0  0  0  0  0  0  0  0  0
   -8.2443    3.5944  -21.7143 H   0  0  0  0  0  0  0  0  0  0  0  0
   -6.9550    3.7772  -22.9001 H   0  0  0  0  0  0  0  0  0  0  0  0
  1  2  1  0
  2  3  1  0
  3  4  2  0
  3  5  1  0
  5  6  1  0
  6  7  1  0
  8  7  1  6
  8  9  1  0
  9 10  2  0
  9 11  1  0
 11 12  1  0
 12 13  2  0
 13 14  1  0
 14 15  2  0
 15 16  1  0
 16 17  2  0
 17 18  1  0
 18 19  2  0
 19 20  1  0
 20 21  2  0
 20 22  1  0
 19 23  1  0
 18 24  1  0
 17 25  1  0
 15 26  1  0
 13 27  1  0
 11 28  1  0
 28 29  1  0
 29 30  1  0
 30 31  1  0
 31 32  1  0
 32 33  2  0
 33 34  1  0
 34 35  2  0
 35 36  1  0
 36 37  2  0
 36 38  1  0
 34 39  1  0
 33 40  1  0
 31 41  1  0
 30 42  1  0
 30 43  1  0
 29 44  1  1
 28 45  1  0
 28 46  1  0
  8 47  1  0
 47 48  2  0
 48 49  1  0
 49 50  1  0
 49 51  2  0
 51 52  1  0
 52 53  2  0
 53 54  1  0
 54 55  2  0
 52 56  1  0
 51 57  1  0
 48 58  1  0
  7 59  1  0
  7 60  1  0
  5 61  1  0
  5 62  1  0
  2 63  1  0
  1 64  1  0
  1 65  1  0
  1 66  1  0
 54  6  1  0
 29  8  1  0
 37 32  1  0
 53 47  1  0
 21 12  1  0
 21 16  1  0
M  END
>  <cnnaffinities>  (1) 
[6.7981, 6.2906]

>  <score>  (1) 
6.7981

>  <index>  (1) 
0

>  <Smiles>  (1) 
C(N(C(=O)C(N1C([C@@]2(C(=O)N(c3c(nc(c4c(c(c(c(c34)[H])[H])[H])[H])[H])[H])C([C@@]2(C(N(c2c(c(nc(n2)[H])[H])[H])[H])([H])[H])[H])([H])[H])c2c(c(Cl)c(c(c2C1=O)[H])[H])[H])([H])[H])([H])[H])[H])([H])([H])[H]

>  <h>  (1) 
<NA>

>  <Training>  (1) 
True

>  <Success>  (1) 
True

>  <enamine_searched>  (1) 
False

>  <enamine_id>  (1) 
nan

$$$$

     RDKit          3D

 68 73  0  0  0  0  0  0  0  0999 V2000
   -7.7857    2.9418  -22.1955 C   0  0  0  0  0  0  0  0  0  0  0  0
   -8.6937    2.4531  -23.1962 N   0  0  0  0  0  0  0  0  0  0  0  0
   -8.2201    1.9334  -24.3444 C   0  0  0  0  0  0  0  0  0  0  0  0
   -7.0371    1.9299  -24.6438 O   0  0  0  0  0  0  0  0  0  0  0  0
   -9.2945    1.2614  -25.1994 C   0  0  0  0  0  0  0  0  0  0  0  0
   -9.8703    0.1397  -24.4812 N   0  0  0  0  0  0  0  0  0  0  0  0
   -8.9536   -0.9350  -24.1636 C   0  0  0  0  0  0  0  0  0  0  0  0
   -9.2496   -1.6591  -22.8161 C   0  0  2  0  0  0  0  0  0  0  0  0
   -8.7075   -0.8017  -21.6381 C   0  0  0  0  0  0  0  0  0  0  0  0
   -9.2562    0.1561  -21.1318 O   0  0  0  0  0  0  0  0  0  0  0  0
   -7.4915   -1.3137  -21.2419 N   0  0  0  0  0  0  0  0  0  0  0  0
   -6.7111   -0.7471  -20.1941 C   0  0  0  0  0  0  0  0  0  0  0  0
   -7.0192   -0.9911  -18.8782 C   0  0  0  0  0  0  0  0  0  0  0  0
   -6.2921   -0.5462  -17.8199 N   0  0  0  0  0  0  0  0  0  0  0  0
   -5.2222    0.1654  -18.0784 C   0  0  0  0  0  0  0  0  0  0  0  0
   -4.7807    0.5015  -19.3910 C   0  0  0  0  0  0  0  0  0  0  0  0
   -3.6215    1.2932  -19.6247 C   0  0  0  0  0  0  0  0  0  0  0  0
   -3.2410    1.6075  -20.9004 C   0  0  0  0  0  0  0  0  0  0  0  0
   -3.9994    1.1513  -22.0008 C   0  0  0  0  0  0  0  0  0  0  0  0
   -5.1253    0.3868  -21.7983 C   0  0  0  0  0  0  0  0  0  0  0  0
   -5.5460    0.0350  -20.4871 C   0  0  0  0  0  0  0  0  0  0  0  0
   -5.7418    0.1161  -22.6505 H   0  0  0  0  0  0  0  0  0  0  0  0
   -3.7123    1.4277  -23.0108 H   0  0  0  0  0  0  0  0  0  0  0  0
   -2.3655    2.2265  -21.0794 H   0  0  0  0  0  0  0  0  0  0  0  0
   -3.0534    1.6520  -18.7696 H   0  0  0  0  0  0  0  0  0  0  0  0
   -4.6435    0.5202  -17.2240 H   0  0  0  0  0  0  0  0  0  0  0  0
   -7.8878   -1.5970  -18.6330 H   0  0  0  0  0  0  0  0  0  0  0  0
   -7.0701   -2.4712  -22.0052 C   0  0  0  0  0  0  0  0  0  0  0  0
   -8.3713   -2.9343  -22.6928 C   0  0  2  0  0  0  0  0  0  0  0  0
   -8.1416   -3.6923  -23.9999 C   0  0  0  0  0  0  0  0  0  0  0  0
   -7.6584   -5.0362  -23.7762 N   0  0  0  0  0  0  0  0  0  0  0  0
   -7.1884   -5.7085  -24.9117 C   0  0  0  0  0  0  0  0  0  0  0  0
   -6.4176   -6.8958  -24.8833 C   0  0  0  0  0  0  0  0  0  0  0  0
   -6.1727   -7.3460  -26.1043 N   0  0  0  0  0  0  0  0  0  0  0  0
   -6.7697   -6.4830  -26.9248 N   0  0  0  0  0  0  0  0  0  0  0  0
   -6.7377   -6.7178  -28.3486 C   0  0  0  0  0  0  0  0  0  0  0  0
   -5.8742   -6.2336  -28.8177 H   0  0  0  0  0  0  0  0  0  0  0  0
   -6.6742   -7.7973  -28.5026 H   0  0  0  0  0  0  0  0  0  0  0  0
   -7.6574   -6.3383  -28.8016 H   0  0  0  0  0  0  0  0  0  0  0  0
   -7.3817   -5.4647  -26.2591 C   0  0  0  0  0  0  0  0  0  0  0  0
   -7.8600   -4.6646  -26.8141 H   0  0  0  0  0  0  0  0  0  0  0  0
   -6.0388   -7.4383  -24.0237 H   0  0  0  0  0  0  0  0  0  0  0  0
   -6.9689   -5.0899  -23.0293 H   0  0  0  0  0  0  0  0  0  0  0  0
   -9.0851   -3.7624  -24.5565 H   0  0  0  0  0  0  0  0  0  0  0  0
   -7.4273   -3.1323  -24.6290 H   0  0  0  0  0  0  0  0  0  0  0  0
   -8.8709   -3.6120  -21.9977 H   0  0  0  0  0  0  0  0  0  0  0  0
   -6.2854   -2.2062  -22.7325 H   0  0  0  0  0  0  0  0  0  0  0  0
   -6.6422   -3.2244  -21.3360 H   0  0  0  0  0  0  0  0  0  0  0  0
  -10.7534   -1.8663  -22.6772 C   0  0  0  0  0  0  0  0  0  0  0  0
  -11.3106   -2.8731  -21.8725 C   0  0  0  0  0  0  0  0  0  0  0  0
  -12.6804   -2.9289  -21.6635 C   0  0  0  0  0  0  0  0  0  0  0  0
  -13.3532   -4.1431  -20.6089 Cl  0  0  0  0  0  0  0  0  0  0  0  0
  -13.5530   -2.0145  -22.2493 C   0  0  0  0  0  0  0  0  0  0  0  0
  -13.0194   -1.0172  -23.0346 C   0  0  0  0  0  0  0  0  0  0  0  0
  -11.6432   -0.9411  -23.2431 C   0  0  0  0  0  0  0  0  0  0  0  0
  -11.1556    0.2230  -24.0417 C   0  0  0  0  0  0  0  0  0  0  0  0
  -11.8674    1.1899  -24.2771 O   0  0  0  0  0  0  0  0  0  0  0  0
  -13.6536   -0.2587  -23.4799 H   0  0  0  0  0  0  0  0  0  0  0  0
  -14.6189   -2.1001  -22.0642 H   0  0  0  0  0  0  0  0  0  0  0  0
  -10.6893   -3.6090  -21.3749 H   0  0  0  0  0  0  0  0  0  0  0  0
   -8.9574   -1.6449  -24.9949 H   0  0  0  0  0  0  0  0  0  0  0  0
   -7.9544   -0.4900  -24.1262 H   0  0  0  0  0  0  0  0  0  0  0  0
   -8.8173    0.9601  -26.1351 H   0  0  0  0  0  0  0  0  0  0  0  0
  -10.1150    1.9485  -25.4026 H   0  0  0  0  0  0  0  0  0  0  0  0
   -9.6525    2.2809  -22.9442 H   0  0  0  0  0  0  0  0  0  0  0  0
   -8.2517    2.9400  -21.2114 H   0  0  0  0  0  0  0  0  0  0  0  0
   -6.9270    2.2683  -22.1571 H   0  0  0  0  0  0  0  0  0  0  0  0
   -7.4464    3.9562  -22.4315 H   0  0  0  0  0  0  0  0  0  0  0  0
  1  2  1  0
  2  3  1  0
  3  4  2  0
  3  5  1  0
  5  6  1  0
  6  7  1  0
  8  7  1  6
  8  9  1  0
  9 10  2  0
  9 11  1  0
 11 12  1  0
 12 13  2  0
 13 14  1  0
 14 15  2  0
 15 16  1  0
 16 17  2  0
 17 18  1  0
 18 19  2  0
 19 20  1  0
 20 21  2  0
 20 22  1  0
 19 23  1  0
 18 24  1  0
 17 25  1  0
 15 26  1  0
 13 27  1  0
 11 28  1  0
 28 29  1  0
 29 30  1  0
 30 31  1  0
 31 32  1  0
 32 33  1  0
 33 34  2  0
 34 35  1  0
 35 36  1  0
 36 37  1  0
 36 38  1  0
 36 39  1  0
 35 40  1  0
 40 41  1  0
 33 42  1  0
 31 43  1  0
 30 44  1  0
 30 45  1  0
 29 46  1  1
 28 47  1  0
 28 48  1  0
  8 49  1  0
 49 50  2  0
 50 51  1  0
 51 52  1  0
 51 53  2  0
 53 54  1  0
 54 55  2  0
 55 56  1  0
 56 57  2  0
 54 58  1  0
 53 59  1  0
 50 60  1  0
  7 61  1  0
  7 62  1  0
  5 63  1  0
  5 64  1  0
  2 65  1  0
  1 66  1  0
  1 67  1  0
  1 68  1  0
 56  6  1  0
 29  8  1  0
 40 32  2  0
 55 49  1  0
 21 12  1  0
 21 16  1  0
M  END
>  <cnnaffinities>  (2) 
[6.91978]

>  <score>  (2) 
6.91978

>  <index>  (2) 
1

>  <Smiles>  (2) 
C(N(C(=O)C(N1C([C@@]2(C(=O)N(c3c(nc(c4c(c(c(c(c34)[H])[H])[H])[H])[H])[H])C([C@@]2(C(N(c2c(nn(C([H])([H])[H])c2[H])[H])[H])([H])[H])[H])([H])[H])c2c(c(Cl)c(c(c2C1=O)[H])[H])[H])([H])[H])([H])[H])[H])([H])([H])[H]

>  <h>  (2) 
<NA>

>  <Training>  (2) 
True

>  <Success>  (2) 
True

>  <enamine_searched>  (2) 
False

>  <enamine_id>  (2) 
nan

$$$$

     RDKit          3D

 60 65  0  0  0  0  0  0  0  0999 V2000
   -9.2500    0.5094  -30.6282 C   0  0  0  0  0  0  0  0  0  0  0  0
   -8.4621    0.4152  -29.3459 C   0  0  0  0  0  0  0  0  0  0  0  0
   -6.7786   -0.6575  -28.2429 C   0  0  0  0  0  0  0  0  0  0  0  0
   -7.0951   -0.1891  -27.0394 N   0  0  0  0  0  0  0  0  0  0  0  0
   -8.1127    0.6832  -27.0034 C   0  0  0  0  0  0  0  0  0  0  0  0
   -8.5468    1.1574  -25.6369 C   0  0  0  0  0  0  0  0  0  0  0  0
   -9.3407    0.1694  -24.9039 N   0  0  0  0  0  0  0  0  0  0  0  0
   -8.7496   -1.1232  -24.5689 C   0  0  0  0  0  0  0  0  0  0  0  0
   -9.0068   -1.5414  -23.0969 C   0  0  2  0  0  0  0  0  0  0  0  0
   -8.2130   -0.5883  -22.1632 C   0  0  0  0  0  0  0  0  0  0  0  0
   -8.2422    0.6235  -22.1891 O   0  0  0  0  0  0  0  0  0  0  0  0
   -7.4345   -1.3431  -21.3039 N   0  0  0  0  0  0  0  0  0  0  0  0
   -6.6395   -0.7909  -20.2654 C   0  0  0  0  0  0  0  0  0  0  0  0
   -6.9574   -1.0545  -18.9551 C   0  0  0  0  0  0  0  0  0  0  0  0
   -6.2883   -0.5785  -17.8763 N   0  0  0  0  0  0  0  0  0  0  0  0
   -5.2369    0.1694  -18.1059 C   0  0  0  0  0  0  0  0  0  0  0  0
   -4.7656    0.4973  -19.4081 C   0  0  0  0  0  0  0  0  0  0  0  0
   -3.6113    1.3072  -19.5875 C   0  0  0  0  0  0  0  0  0  0  0  0
   -3.1551    1.5901  -20.8462 C   0  0  0  0  0  0  0  0  0  0  0  0
   -3.8243    1.0683  -21.9742 C   0  0  0  0  0  0  0  0  0  0  0  0
   -4.9451    0.2879  -21.8258 C   0  0  0  0  0  0  0  0  0  0  0  0
   -5.4649   -0.0027  -20.5317 C   0  0  0  0  0  0  0  0  0  0  0  0
   -5.4497   -0.1012  -22.7032 H   0  0  0  0  0  0  0  0  0  0  0  0
   -3.4514    1.2969  -22.9690 H   0  0  0  0  0  0  0  0  0  0  0  0
   -2.2807    2.2202  -20.9874 H   0  0  0  0  0  0  0  0  0  0  0  0
   -3.1038    1.6938  -18.7079 H   0  0  0  0  0  0  0  0  0  0  0  0
   -4.6937    0.5506  -17.2402 H   0  0  0  0  0  0  0  0  0  0  0  0
   -7.8217   -1.6745  -18.7243 H   0  0  0  0  0  0  0  0  0  0  0  0
   -7.8011   -2.7473  -21.3328 C   0  0  0  0  0  0  0  0  0  0  0  0
   -8.4309   -2.9455  -22.7280 C   0  0  2  0  0  0  0  0  0  0  0  0
   -7.4318   -3.5421  -23.7247 C   0  0  0  0  0  0  0  0  0  0  0  0
   -6.5549   -2.9028  -23.8693 H   0  0  0  0  0  0  0  0  0  0  0  0
   -7.8999   -3.6986  -24.7011 H   0  0  0  0  0  0  0  0  0  0  0  0
   -7.0873   -4.5186  -23.3690 H   0  0  0  0  0  0  0  0  0  0  0  0
   -9.2488   -3.6676  -22.6706 H   0  0  0  0  0  0  0  0  0  0  0  0
   -6.9136   -3.3684  -21.1751 H   0  0  0  0  0  0  0  0  0  0  0  0
   -8.5299   -2.9802  -20.5430 H   0  0  0  0  0  0  0  0  0  0  0  0
  -10.5152   -1.4298  -22.8725 C   0  0  0  0  0  0  0  0  0  0  0  0
  -11.2190   -2.2905  -22.0179 C   0  0  0  0  0  0  0  0  0  0  0  0
  -12.5776   -2.1156  -21.8470 C   0  0  0  0  0  0  0  0  0  0  0  0
  -13.2349   -2.9760  -21.0484 F   0  0  0  0  0  0  0  0  0  0  0  0
  -13.2881   -1.0791  -22.4334 C   0  0  0  0  0  0  0  0  0  0  0  0
  -12.5987   -0.2219  -23.2645 C   0  0  0  0  0  0  0  0  0  0  0  0
  -11.2397   -0.4117  -23.5089 C   0  0  0  0  0  0  0  0  0  0  0  0
  -10.5761    0.5381  -24.4561 C   0  0  0  0  0  0  0  0  0  0  0  0
  -11.1165    1.5838  -24.7997 O   0  0  0  0  0  0  0  0  0  0  0  0
  -13.0910    0.6165  -23.7464 H   0  0  0  0  0  0  0  0  0  0  0  0
  -14.3401   -0.9462  -22.2030 H   0  0  0  0  0  0  0  0  0  0  0  0
  -10.7441   -3.0846  -21.4553 H   0  0  0  0  0  0  0  0  0  0  0  0
   -9.1572   -1.8951  -25.2358 H   0  0  0  0  0  0  0  0  0  0  0  0
   -7.6791   -1.0449  -24.7581 H   0  0  0  0  0  0  0  0  0  0  0  0
   -9.1672    2.0561  -25.7129 H   0  0  0  0  0  0  0  0  0  0  0  0
   -7.6524    1.3951  -25.0488 H   0  0  0  0  0  0  0  0  0  0  0  0
   -8.7483    1.1085  -28.1700 C   0  0  0  0  0  0  0  0  0  0  0  0
   -7.4324   -0.4405  -29.3807 N   0  0  0  0  0  0  0  0  0  0  0  0
   -9.3870    1.9913  -28.1695 H   0  0  0  0  0  0  0  0  0  0  0  0
   -5.8879   -1.2724  -28.2927 H   0  0  0  0  0  0  0  0  0  0  0  0
   -8.5597    0.4756  -31.4671 H   0  0  0  0  0  0  0  0  0  0  0  0
   -9.9229   -0.3534  -30.7146 H   0  0  0  0  0  0  0  0  0  0  0  0
   -9.8501    1.4185  -30.6954 H   0  0  0  0  0  0  0  0  0  0  0  0
  1  2  1  0
  2  3  2  0
  3  4  1  0
  4  5  2  0
  5  6  1  0
  6  7  1  0
  7  8  1  0
  9  8  1  6
  9 10  1  0
 10 11  2  0
 10 12  1  0
 12 13  1  0
 13 14  2  0
 14 15  1  0
 15 16  2  0
 16 17  1  0
 17 18  2  0
 18 19  1  0
 19 20  2  0
 20 21  1  0
 21 22  2  0
 21 23  1  0
 20 24  1  0
 19 25  1  0
 18 26  1  0
 16 27  1  0
 14 28  1  0
 12 29  1  0
 29 30  1  0
 30 31  1  0
 31 32  1  0
 31 33  1  0
 31 34  1  0
 30 35  1  1
 29 36  1  0
 29 37  1  0
  9 38  1  0
 38 39  2  0
 39 40  1  0
 40 41  1  0
 40 42  2  0
 42 43  1  0
 43 44  2  0
 44 45  1  0
 45 46  2  0
 43 47  1  0
 42 48  1  0
 39 49  1  0
  8 50  1  0
  8 51  1  0
  6 52  1  0
  6 53  1  0
  5 54  1  0
 54 55  2  0
 54 56  1  0
  3 57  1  0
  1 58  1  0
  1 59  1  0
  1 60  1  0
 55  2  1  0
 45  7  1  0
 30  9  1  0
 44 38  1  0
 22 13  1  0
 22 17  1  0
M  END
>  <cnnaffinities>  (3) 
[6.19793]

>  <score>  (3) 
6.19793

>  <index>  (3) 
2

>  <Smiles>  (3) 
C(c1c(nc(C(N2C([C@@]3(C(=O)N(c4c(nc(c5c(c(c(c(c45)[H])[H])[H])[H])[H])[H])C([C@@]3(C([H])([H])[H])[H])([H])[H])c3c(c(F)c(c(c3C2=O)[H])[H])[H])([H])[H])([H])[H])c(n1)[H])[H])([H])([H])[H]

>  <h>  (3) 
<NA>

>  <Training>  (3) 
True

>  <Success>  (3) 
True

>  <enamine_searched>  (3) 
False

>  <enamine_id>  (3) 
nan

$$$$

     RDKit          3D

 66 70  0  0  0  0  0  0  0  0999 V2000
   -7.7423    2.8815  -22.3035 C   0  0  0  0  0  0  0  0  0  0  0  0
   -8.6708    2.3786  -23.2826 N   0  0  0  0  0  0  0  0  0  0  0  0
   -8.2142    1.8438  -24.4401 C   0  0  0  0  0  0  0  0  0  0  0  0
   -7.0360    1.8131  -24.7691 O   0  0  0  0  0  0  0  0  0  0  0  0
   -9.3191    1.1764  -25.2510 C   0  0  0  0  0  0  0  0  0  0  0  0
   -9.8520    0.0566  -24.4896 N   0  0  0  0  0  0  0  0  0  0  0  0
   -8.9129   -1.0031  -24.1656 C   0  0  0  0  0  0  0  0  0  0  0  0
   -9.2083   -1.7379  -22.8224 C   0  0  2  0  0  0  0  0  0  0  0  0
   -8.6947   -0.8791  -21.6305 C   0  0  0  0  0  0  0  0  0  0  0  0
   -9.2637    0.0728  -21.1292 O   0  0  0  0  0  0  0  0  0  0  0  0
   -7.4639   -1.3603  -21.2389 N   0  0  0  0  0  0  0  0  0  0  0  0
   -6.6956   -0.7750  -20.1959 C   0  0  0  0  0  0  0  0  0  0  0  0
   -7.0200   -1.0007  -18.8818 C   0  0  0  0  0  0  0  0  0  0  0  0
   -6.3076   -0.5392  -17.8218 N   0  0  0  0  0  0  0  0  0  0  0  0
   -5.2325    0.1666  -18.0769 C   0  0  0  0  0  0  0  0  0  0  0  0
   -4.7822    0.4875  -19.3903 C   0  0  0  0  0  0  0  0  0  0  0  0
   -3.6232    1.2784  -19.6209 C   0  0  0  0  0  0  0  0  0  0  0  0
   -3.2396    1.5921  -20.8959 C   0  0  0  0  0  0  0  0  0  0  0  0
   -3.9959    1.1410  -21.9983 C   0  0  0  0  0  0  0  0  0  0  0  0
   -5.1205    0.3732  -21.8012 C   0  0  0  0  0  0  0  0  0  0  0  0
   -5.5372    0.0135  -20.4895 C   0  0  0  0  0  0  0  0  0  0  0  0
   -5.7345    0.1086  -22.6575 H   0  0  0  0  0  0  0  0  0  0  0  0
   -3.7043    1.4206  -23.0066 H   0  0  0  0  0  0  0  0  0  0  0  0
   -2.3634    2.2098  -21.0734 H   0  0  0  0  0  0  0  0  0  0  0  0
   -3.0546    1.6364  -18.7673 H   0  0  0  0  0  0  0  0  0  0  0  0
   -4.6575    0.5321  -17.2232 H   0  0  0  0  0  0  0  0  0  0  0  0
   -7.8963   -1.5986  -18.6439 H   0  0  0  0  0  0  0  0  0  0  0  0
   -7.0036   -2.4971  -22.0144 C   0  0  0  0  0  0  0  0  0  0  0  0
   -8.2912   -2.9913  -22.7025 C   0  0  2  0  0  0  0  0  0  0  0  0
   -8.0066   -3.7195  -24.0075 C   0  0  0  0  0  0  0  0  0  0  0  0
   -7.2663   -4.8884  -23.7452 O   0  0  0  0  0  0  0  0  0  0  0  0
   -7.0699   -5.6820  -24.9100 C   0  0  0  0  0  0  0  0  0  0  0  0
   -5.6974   -6.3240  -24.7995 C   0  0  0  0  0  0  0  0  0  0  0  0
   -5.4835   -6.9379  -25.6815 H   0  0  0  0  0  0  0  0  0  0  0  0
   -4.9171   -5.5620  -24.7101 H   0  0  0  0  0  0  0  0  0  0  0  0
   -5.6664   -6.9607  -23.9108 H   0  0  0  0  0  0  0  0  0  0  0  0
   -8.1821   -6.7182  -25.0089 C   0  0  0  0  0  0  0  0  0  0  0  0
   -8.1641   -7.3495  -24.1160 H   0  0  0  0  0  0  0  0  0  0  0  0
   -9.1696   -6.2479  -25.0695 H   0  0  0  0  0  0  0  0  0  0  0  0
   -8.0495   -7.3507  -25.8933 H   0  0  0  0  0  0  0  0  0  0  0  0
   -7.0920   -5.0324  -25.8014 H   0  0  0  0  0  0  0  0  0  0  0  0
   -8.9555   -3.9531  -24.5202 H   0  0  0  0  0  0  0  0  0  0  0  0
   -7.4115   -3.0746  -24.6772 H   0  0  0  0  0  0  0  0  0  0  0  0
   -8.7681   -3.7063  -22.0295 H   0  0  0  0  0  0  0  0  0  0  0  0
   -6.2293   -2.2120  -22.7472 H   0  0  0  0  0  0  0  0  0  0  0  0
   -6.5690   -3.2580  -21.3609 H   0  0  0  0  0  0  0  0  0  0  0  0
  -10.7097   -1.9785  -22.7064 C   0  0  0  0  0  0  0  0  0  0  0  0
  -11.2452   -2.9568  -21.8540 C   0  0  0  0  0  0  0  0  0  0  0  0
  -12.6149   -3.0386  -21.6495 C   0  0  0  0  0  0  0  0  0  0  0  0
  -13.2652   -4.1846  -20.5142 Cl  0  0  0  0  0  0  0  0  0  0  0  0
  -13.5160   -2.2027  -22.3034 C   0  0  0  0  0  0  0  0  0  0  0  0
  -13.0023   -1.2418  -23.1432 C   0  0  0  0  0  0  0  0  0  0  0  0
  -11.6263   -1.1162  -23.3291 C   0  0  0  0  0  0  0  0  0  0  0  0
  -11.1778    0.0338  -24.1747 C   0  0  0  0  0  0  0  0  0  0  0  0
  -11.9529    0.9102  -24.5311 O   0  0  0  0  0  0  0  0  0  0  0  0
  -13.6500   -0.5380  -23.6501 H   0  0  0  0  0  0  0  0  0  0  0  0
  -14.5827   -2.2991  -22.1237 H   0  0  0  0  0  0  0  0  0  0  0  0
  -10.6098   -3.6515  -21.3156 H   0  0  0  0  0  0  0  0  0  0  0  0
   -8.9060   -1.7205  -24.9918 H   0  0  0  0  0  0  0  0  0  0  0  0
   -7.9157   -0.5513  -24.1214 H   0  0  0  0  0  0  0  0  0  0  0  0
   -8.9021    0.8631  -26.2125 H   0  0  0  0  0  0  0  0  0  0  0  0
  -10.1465    1.8668  -25.4242 H   0  0  0  0  0  0  0  0  0  0  0  0
   -9.5866    2.1078  -22.9682 H   0  0  0  0  0  0  0  0  0  0  0  0
   -7.4448    3.9139  -22.5049 H   0  0  0  0  0  0  0  0  0  0  0  0
   -8.2113    2.8399  -21.3250 H   0  0  0  0  0  0  0  0  0  0  0  0
   -6.8555    2.2461  -22.2814 H   0  0  0  0  0  0  0  0  0  0  0  0
  1  2  1  0
  2  3  1  0
  3  4  2  0
  3  5  1  0
  5  6  1  0
  6  7  1  0
  8  7  1  6
  8  9  1  0
  9 10  2  0
  9 11  1  0
 11 12  1  0
 12 13  2  0
 13 14  1  0
 14 15  2  0
 15 16  1  0
 16 17  2  0
 17 18  1  0
 18 19  2  0
 19 20  1  0
 20 21  2  0
 20 22  1  0
 19 23  1  0
 18 24  1  0
 17 25  1  0
 15 26  1  0
 13 27  1  0
 11 28  1  0
 28 29  1  0
 29 30  1  0
 30 31  1  0
 31 32  1  0
 32 33  1  0
 33 34  1  0
 33 35  1  0
 33 36  1  0
 32 37  1  0
 37 38  1  0
 37 39  1  0
 37 40  1  0
 32 41  1  0
 30 42  1  0
 30 43  1  0
 29 44  1  1
 28 45  1  0
 28 46  1  0
  8 47  1  0
 47 48  2  0
 48 49  1  0
 49 50  1  0
 49 51  2  0
 51 52  1  0
 52 53  2  0
 53 54  1  0
 54 55  2  0
 52 56  1  0
 51 57  1  0
 48 58  1  0
  7 59  1  0
  7 60  1  0
  5 61  1  0
  5 62  1  0
  2 63  1  0
  1 64  1  0
  1 65  1  0
  1 66  1  0
 54  6  1  0
 29  8  1  0
 53 47  1  0
 21 12  1  0
 21 16  1  0
M  END
>  <cnnaffinities>  (4) 
[6.52575, 6.58567, 6.42591, 6.34442]

>  <score>  (4) 
6.52575

>  <index>  (4) 
3

>  <Smiles>  (4) 
C(N(C(=O)C(N1C([C@@]2(C(=O)N(c3c(nc(c4c(c(c(c(c34)[H])[H])[H])[H])[H])[H])C([C@@]2(C(OC(C([H])([H])[H])(C([H])([H])[H])[H])([H])[H])[H])([H])[H])c2c(c(Cl)c(c(c2C1=O)[H])[H])[H])([H])[H])([H])[H])[H])([H])([H])[H]

>  <h>  (4) 
<NA>

>  <Training>  (4) 
True

>  <Success>  (4) 
True

>  <enamine_searched>  (4) 
False

>  <enamine_id>  (4) 
nan

$$$$

     RDKit          3D

 59 64  0  0  0  0  0  0  0  0999 V2000
   -8.0733   -3.8373  -23.8624 C   0  0  0  0  0  0  0  0  0  0  0  0
   -8.4134   -2.8548  -22.7335 C   0  0  1  0  0  0  0  0  0  0  0  0
   -7.2600   -2.7018  -21.7198 C   0  0  0  0  0  0  0  0  0  0  0  0
   -7.4311   -1.3602  -21.1963 N   0  0  0  0  0  0  0  0  0  0  0  0
   -6.6123   -0.8008  -20.1797 C   0  0  0  0  0  0  0  0  0  0  0  0
   -6.9018   -1.0488  -18.8634 C   0  0  0  0  0  0  0  0  0  0  0  0
   -6.2006   -0.5531  -17.8127 N   0  0  0  0  0  0  0  0  0  0  0  0
   -5.1668    0.2065  -18.0843 C   0  0  0  0  0  0  0  0  0  0  0  0
   -4.7355    0.5288  -19.4024 C   0  0  0  0  0  0  0  0  0  0  0  0
   -3.6018    1.3539  -19.6432 C   0  0  0  0  0  0  0  0  0  0  0  0
   -3.2034    1.6346  -20.9209 C   0  0  0  0  0  0  0  0  0  0  0  0
   -3.9130    1.0934  -22.0200 C   0  0  0  0  0  0  0  0  0  0  0  0
   -5.0110    0.2955  -21.8130 C   0  0  0  0  0  0  0  0  0  0  0  0
   -5.4681    0.0059  -20.4938 C   0  0  0  0  0  0  0  0  0  0  0  0
   -5.5477   -0.1102  -22.6676 H   0  0  0  0  0  0  0  0  0  0  0  0
   -3.6073    1.3240  -23.0361 H   0  0  0  0  0  0  0  0  0  0  0  0
   -2.3506    2.2845  -21.0970 H   0  0  0  0  0  0  0  0  0  0  0  0
   -3.0697    1.7626  -18.7876 H   0  0  0  0  0  0  0  0  0  0  0  0
   -4.6185    0.6098  -17.2319 H   0  0  0  0  0  0  0  0  0  0  0  0
   -7.7494   -1.6793  -18.6028 H   0  0  0  0  0  0  0  0  0  0  0  0
   -8.2411   -0.5600  -21.9698 C   0  0  0  0  0  0  0  0  0  0  0  0
   -8.4443    0.6142  -21.7429 O   0  0  0  0  0  0  0  0  0  0  0  0
   -8.7908   -1.3958  -23.1510 C   0  0  1  0  0  0  0  0  0  0  0  0
   -8.0664   -0.9693  -24.4541 C   0  0  0  0  0  0  0  0  0  0  0  0
   -8.4350    0.3694  -24.8662 N   0  0  0  0  0  0  0  0  0  0  0  0
   -7.3872    1.3709  -25.0189 C   0  0  0  0  0  0  0  0  0  0  0  0
   -6.2963    0.9646  -25.9698 C   0  0  0  0  0  0  0  0  0  0  0  0
   -5.0470    0.7166  -25.6242 N   0  0  0  0  0  0  0  0  0  0  0  0
   -4.4140    0.3437  -26.7828 C   0  0  0  0  0  0  0  0  0  0  0  0
   -5.2930    0.3657  -27.8314 C   0  0  0  0  0  0  0  0  0  0  0  0
   -6.5012    0.7704  -27.3031 N   0  0  0  0  0  0  0  0  0  0  0  0
   -7.7500    0.9207  -28.0286 C   0  0  0  0  0  0  0  0  0  0  0  0
   -8.4611    0.1347  -27.7552 H   0  0  0  0  0  0  0  0  0  0  0  0
   -8.2047    1.8968  -27.8269 H   0  0  0  0  0  0  0  0  0  0  0  0
   -7.5265    0.8482  -29.0961 H   0  0  0  0  0  0  0  0  0  0  0  0
   -5.1940    0.1313  -28.8807 H   0  0  0  0  0  0  0  0  0  0  0  0
   -3.3646    0.0712  -26.7809 H   0  0  0  0  0  0  0  0  0  0  0  0
   -7.8936    2.2853  -25.3433 H   0  0  0  0  0  0  0  0  0  0  0  0
   -6.9099    1.5562  -24.0456 H   0  0  0  0  0  0  0  0  0  0  0  0
   -9.7515    0.7109  -25.0025 C   0  0  0  0  0  0  0  0  0  0  0  0
  -10.1290    1.6594  -25.6813 O   0  0  0  0  0  0  0  0  0  0  0  0
  -10.7214   -0.1419  -24.2342 C   0  0  0  0  0  0  0  0  0  0  0  0
  -12.0812    0.1440  -24.3614 C   0  0  0  0  0  0  0  0  0  0  0  0
  -13.0208   -0.5300  -23.6089 C   0  0  0  0  0  0  0  0  0  0  0  0
  -12.5629   -1.4319  -22.6559 C   0  0  0  0  0  0  0  0  0  0  0  0
  -13.4600   -2.0260  -21.8518 F   0  0  0  0  0  0  0  0  0  0  0  0
  -11.2233   -1.7186  -22.4882 C   0  0  0  0  0  0  0  0  0  0  0  0
  -10.2760   -1.1181  -23.3284 C   0  0  0  0  0  0  0  0  0  0  0  0
  -10.9471   -2.3806  -21.6742 H   0  0  0  0  0  0  0  0  0  0  0  0
  -14.0837   -0.3410  -23.7054 H   0  0  0  0  0  0  0  0  0  0  0  0
  -12.3651    0.9498  -25.0262 H   0  0  0  0  0  0  0  0  0  0  0  0
   -6.9841   -0.9765  -24.3020 H   0  0  0  0  0  0  0  0  0  0  0  0
   -8.3176   -1.6788  -25.2565 H   0  0  0  0  0  0  0  0  0  0  0  0
   -7.3052   -3.4341  -20.9080 H   0  0  0  0  0  0  0  0  0  0  0  0
   -6.2829   -2.8250  -22.2145 H   0  0  0  0  0  0  0  0  0  0  0  0
   -9.2785   -3.2468  -22.1928 H   0  0  0  0  0  0  0  0  0  0  0  0
   -7.9023   -4.8455  -23.4668 H   0  0  0  0  0  0  0  0  0  0  0  0
   -8.8754   -3.9031  -24.6068 H   0  0  0  0  0  0  0  0  0  0  0  0
   -7.1589   -3.5355  -24.3892 H   0  0  0  0  0  0  0  0  0  0  0  0
  1  2  1  0
  2  3  1  0
  3  4  1  0
  4  5  1  0
  5  6  2  0
  6  7  1  0
  7  8  2  0
  8  9  1  0
  9 10  2  0
 10 11  1  0
 11 12  2  0
 12 13  1  0
 13 14  2  0
 13 15  1  0
 12 16  1  0
 11 17  1  0
 10 18  1  0
  8 19  1  0
  6 20  1  0
  4 21  1  0
 21 22  2  0
 21 23  1  0
 23 24  1  6
 24 25  1  0
 25 26  1  0
 26 27  1  0
 27 28  2  0
 28 29  1  0
 29 30  2  0
 30 31  1  0
 31 32  1  0
 32 33  1  0
 32 34  1  0
 32 35  1  0
 30 36  1  0
 29 37  1  0
 26 38  1  0
 26 39  1  0
 25 40  1  0
 40 41  2  0
 40 42  1  0
 42 43  2  0
 43 44  1  0
 44 45  2  0
 45 46  1  0
 45 47  1  0
 47 48  2  0
 47 49  1  0
 44 50  1  0
 43 51  1  0
 24 52  1  0
 24 53  1  0
  3 54  1  0
  3 55  1  0
  2 56  1  1
  1 57  1  0
  1 58  1  0
  1 59  1  0
 23  2  1  0
 31 27  1  0
 48 42  1  0
 14  5  1  0
 48 23  1  0
 14  9  1  0
M  END
>  <cnnaffinities>  (5) 
[6.27764, 6.55341, 6.52933]

>  <score>  (5) 
6.27764

>  <index>  (5) 
4

>  <Smiles>  (5) 
C([C@]1(C(N(c2c(nc(c3c(c(c(c(c23)[H])[H])[H])[H])[H])[H])C(=O)[C@]21C(N(C(c1nc(c(n1C([H])([H])[H])[H])[H])([H])[H])C(=O)c1c(c(c(F)c(c21)[H])[H])[H])([H])[H])([H])[H])[H])([H])([H])[H]

>  <h>  (5) 
<NA>

>  <Training>  (5) 
True

>  <Success>  (5) 
True

>  <enamine_searched>  (5) 
False

>  <enamine_id>  (5) 
nan

$$$$

     RDKit          3D

 58 61  0  0  0  0  0  0  0  0999 V2000
   -8.0242   -4.6252  -21.9362 C   0  0  0  0  0  0  0  0  0  0  0  0
   -6.9856   -3.8374  -21.6602 C   0  0  0  0  0  0  0  0  0  0  0  0
   -6.6926   -2.4250  -22.0663 C   0  0  0  0  0  0  0  0  0  0  0  0
   -7.3576   -1.4129  -21.2390 N   0  0  0  0  0  0  0  0  0  0  0  0
   -8.5807   -0.7934  -21.4831 C   0  0  0  0  0  0  0  0  0  0  0  0
   -9.0150    0.0231  -20.7013 O   0  0  0  0  0  0  0  0  0  0  0  0
   -9.3110   -1.0997  -22.7907 C   0  0  2  0  0  0  0  0  0  0  0  0
   -8.7263   -0.2251  -23.9115 C   0  0  0  0  0  0  0  0  0  0  0  0
   -9.0735    1.1680  -23.6672 N   0  0  0  0  0  0  0  0  0  0  0  0
   -8.0353    2.1798  -23.7138 C   0  0  0  0  0  0  0  0  0  0  0  0
   -7.5170    2.3198  -25.1415 C   0  0  0  0  0  0  0  0  0  0  0  0
   -6.4851    1.7922  -25.5300 O   0  0  0  0  0  0  0  0  0  0  0  0
   -8.3388    3.0154  -25.9641 N   0  0  0  0  0  0  0  0  0  0  0  0
   -7.9586    3.2033  -27.3474 C   0  0  0  0  0  0  0  0  0  0  0  0
   -7.0072    3.7395  -27.4061 H   0  0  0  0  0  0  0  0  0  0  0  0
   -7.8281    2.2408  -27.8515 H   0  0  0  0  0  0  0  0  0  0  0  0
   -8.7275    3.7793  -27.8645 H   0  0  0  0  0  0  0  0  0  0  0  0
   -9.2391    3.3250  -25.6285 H   0  0  0  0  0  0  0  0  0  0  0  0
   -7.2142    1.8938  -23.0463 H   0  0  0  0  0  0  0  0  0  0  0  0
   -8.4674    3.1228  -23.3633 H   0  0  0  0  0  0  0  0  0  0  0  0
  -10.3697    1.5568  -23.4820 C   0  0  0  0  0  0  0  0  0  0  0  0
  -10.7524    2.7012  -23.6937 O   0  0  0  0  0  0  0  0  0  0  0  0
  -11.2796    0.4757  -22.9942 C   0  0  0  0  0  0  0  0  0  0  0  0
  -12.6354    0.7702  -22.8689 C   0  0  0  0  0  0  0  0  0  0  0  0
  -13.5279   -0.2047  -22.4654 C   0  0  0  0  0  0  0  0  0  0  0  0
  -13.0385   -1.4696  -22.1430 C   0  0  0  0  0  0  0  0  0  0  0  0
  -14.1539   -2.6918  -21.6055 Cl  0  0  0  0  0  0  0  0  0  0  0  0
  -11.6845   -1.7635  -22.2376 C   0  0  0  0  0  0  0  0  0  0  0  0
  -10.7866   -0.7899  -22.6765 C   0  0  0  0  0  0  0  0  0  0  0  0
  -11.3281   -2.7547  -21.9674 H   0  0  0  0  0  0  0  0  0  0  0  0
  -14.5892    0.0115  -22.3846 H   0  0  0  0  0  0  0  0  0  0  0  0
  -12.9630    1.7779  -23.0973 H   0  0  0  0  0  0  0  0  0  0  0  0
   -9.1193   -0.5641  -24.8793 H   0  0  0  0  0  0  0  0  0  0  0  0
   -7.6363   -0.2850  -23.9704 H   0  0  0  0  0  0  0  0  0  0  0  0
   -9.1800   -2.1569  -23.0181 H   0  0  0  0  0  0  0  0  0  0  0  0
   -6.6076   -0.8426  -20.1812 C   0  0  0  0  0  0  0  0  0  0  0  0
   -6.9614   -1.0489  -18.8730 C   0  0  0  0  0  0  0  0  0  0  0  0
   -6.2668   -0.5632  -17.8165 N   0  0  0  0  0  0  0  0  0  0  0  0
   -5.2047    0.1641  -18.0820 C   0  0  0  0  0  0  0  0  0  0  0  0
   -4.7548    0.4790  -19.3969 C   0  0  0  0  0  0  0  0  0  0  0  0
   -3.6234    1.3064  -19.6314 C   0  0  0  0  0  0  0  0  0  0  0  0
   -3.2333    1.6166  -20.9059 C   0  0  0  0  0  0  0  0  0  0  0  0
   -3.9552    1.1229  -22.0138 C   0  0  0  0  0  0  0  0  0  0  0  0
   -5.0609    0.3330  -21.8128 C   0  0  0  0  0  0  0  0  0  0  0  0
   -5.4764   -0.0276  -20.4935 C   0  0  0  0  0  0  0  0  0  0  0  0
   -5.6127   -0.0120  -22.6832 H   0  0  0  0  0  0  0  0  0  0  0  0
   -3.6443    1.3700  -23.0263 H   0  0  0  0  0  0  0  0  0  0  0  0
   -2.3741    2.2581  -21.0771 H   0  0  0  0  0  0  0  0  0  0  0  0
   -3.0899    1.6959  -18.7699 H   0  0  0  0  0  0  0  0  0  0  0  0
   -4.6462    0.5640  -17.2346 H   0  0  0  0  0  0  0  0  0  0  0  0
   -7.8515   -1.6296  -18.6351 H   0  0  0  0  0  0  0  0  0  0  0  0
   -6.8856   -2.2298  -23.1277 H   0  0  0  0  0  0  0  0  0  0  0  0
   -5.6212   -2.3583  -21.8109 H   0  0  0  0  0  0  0  0  0  0  0  0
   -5.7736   -4.2651  -20.8250 C   0  0  0  0  0  0  0  0  0  0  0  0
   -4.9541   -3.3437  -20.5954 O   0  0  0  0  0  0  0  0  0  0  0  0
   -5.6473   -5.4403  -20.4448 O   0  0  0  0  0  1  0  0  0  0  0  0
   -8.8653   -4.2799  -22.5467 H   0  0  0  0  0  0  0  0  0  0  0  0
   -8.1255   -5.6385  -21.5540 H   0  0  0  0  0  0  0  0  0  0  0  0
  1  2  2  0
  2  3  1  0
  3  4  1  0
  4  5  1  0
  5  6  2  0
  5  7  1  0
  7  8  1  0
  8  9  1  0
  9 10  1  0
 10 11  1  0
 11 12  2  0
 11 13  1  0
 13 14  1  0
 14 15  1  0
 14 16  1  0
 14 17  1  0
 13 18  1  0
 10 19  1  0
 10 20  1  0
  9 21  1  0
 21 22  2  0
 21 23  1  0
 23 24  2  0
 24 25  1  0
 25 26  2  0
 26 27  1  0
 26 28  1  0
 28 29  2  0
 28 30  1  0
 25 31  1  0
 24 32  1  0
  8 33  1  0
  8 34  1  0
  7 35  1  6
  4 36  1  0
 36 37  2  0
 37 38  1  0
 38 39  2  0
 39 40  1  0
 40 41  2  0
 41 42  1  0
 42 43  2  0
 43 44  1  0
 44 45  2  0
 44 46  1  0
 43 47  1  0
 42 48  1  0
 41 49  1  0
 39 50  1  0
 37 51  1  0
  3 52  1  0
  3 53  1  0
  2 54  1  0
 54 55  2  0
 54 56  1  0
  1 57  1  0
  1 58  1  0
 29  7  1  0
 45 36  1  0
 29 23  1  0
 45 40  1  0
M  CHG  1  56  -1
M  END
>  <cnnaffinities>  (6) 
[6.19505]

>  <score>  (6) 
6.19505

>  <index>  (6) 
5

>  <Smiles>  (6) 
C(=C(C(N(C(=O)[C@@]1(C(N(C(C(=O)N(C([H])([H])[H])[H])([H])[H])C(=O)c2c(c(c(Cl)c(c12)[H])[H])[H])([H])[H])[H])c1c(nc(c2c(c(c(c(c12)[H])[H])[H])[H])[H])[H])([H])[H])C(=O)[O-])([H])[H]

>  <h>  (6) 
<NA>

>  <Training>  (6) 
True

>  <Success>  (6) 
True

>  <enamine_searched>  (6) 
False

>  <enamine_id>  (6) 
nan

$$$$

     RDKit          3D

 43 45  0  0  0  0  0  0  0  0999 V2000
   -8.2950   -5.9229  -27.5889 C   0  0  0  0  0  0  0  0  0  0  0  0
   -8.9428   -4.8585  -26.7117 C   0  0  0  0  0  0  0  0  0  0  0  0
   -7.9765   -4.1566  -25.7456 C   0  0  0  0  0  0  0  0  0  0  0  0
   -7.3677   -5.1160  -24.7222 C   0  0  0  0  0  0  0  0  0  0  0  0
   -6.5635   -4.4021  -23.6398 C   0  0  0  0  0  0  0  0  0  0  0  0
   -7.3127   -3.3160  -22.9960 N   0  0  0  0  0  0  0  0  0  0  0  0
   -6.7219   -2.7001  -21.9188 C   0  0  0  0  0  0  0  0  0  0  0  0
   -5.6558   -3.1031  -21.4789 O   0  0  0  0  0  0  0  0  0  0  0  0
   -7.4108   -1.4705  -21.2750 C   0  0  0  0  0  0  0  0  0  0  0  0
   -6.5781   -0.8336  -20.1826 C   0  0  0  0  0  0  0  0  0  0  0  0
   -6.8739   -1.0461  -18.8620 C   0  0  0  0  0  0  0  0  0  0  0  0
   -6.1933   -0.5383  -17.7969 N   0  0  0  0  0  0  0  0  0  0  0  0
   -5.1586    0.2192  -18.0648 C   0  0  0  0  0  0  0  0  0  0  0  0
   -4.7208    0.5295  -19.3803 C   0  0  0  0  0  0  0  0  0  0  0  0
   -3.5927    1.3575  -19.6219 C   0  0  0  0  0  0  0  0  0  0  0  0
   -3.1918    1.6338  -20.9001 C   0  0  0  0  0  0  0  0  0  0  0  0
   -3.9039    1.0898  -21.9930 C   0  0  0  0  0  0  0  0  0  0  0  0
   -5.0002    0.2883  -21.7863 C   0  0  0  0  0  0  0  0  0  0  0  0
   -5.4448   -0.0132  -20.4734 C   0  0  0  0  0  0  0  0  0  0  0  0
   -5.5352   -0.1210  -22.6375 H   0  0  0  0  0  0  0  0  0  0  0  0
   -3.5818    1.3181  -23.0046 H   0  0  0  0  0  0  0  0  0  0  0  0
   -2.3314    2.2726  -21.0889 H   0  0  0  0  0  0  0  0  0  0  0  0
   -3.0513    1.7709  -18.7727 H   0  0  0  0  0  0  0  0  0  0  0  0
   -4.6014    0.6264  -17.2169 H   0  0  0  0  0  0  0  0  0  0  0  0
   -7.7215   -1.6714  -18.5872 H   0  0  0  0  0  0  0  0  0  0  0  0
   -8.3717   -1.7892  -20.8450 H   0  0  0  0  0  0  0  0  0  0  0  0
   -7.6538   -0.7193  -22.0410 H   0  0  0  0  0  0  0  0  0  0  0  0
   -8.6457   -3.0528  -23.5199 C   0  0  0  0  0  0  0  0  0  0  0  0
   -8.6341   -2.9509  -25.0430 C   0  0  0  0  0  0  0  0  0  0  0  0
   -8.1118   -2.0336  -25.3273 H   0  0  0  0  0  0  0  0  0  0  0  0
   -9.6636   -2.8241  -25.3930 H   0  0  0  0  0  0  0  0  0  0  0  0
   -9.3375   -3.8465  -23.2112 H   0  0  0  0  0  0  0  0  0  0  0  0
   -9.0307   -2.1250  -23.0973 H   0  0  0  0  0  0  0  0  0  0  0  0
   -6.2440   -5.1239  -22.8824 H   0  0  0  0  0  0  0  0  0  0  0  0
   -5.6397   -4.0054  -24.0753 H   0  0  0  0  0  0  0  0  0  0  0  0
   -6.7106   -5.8306  -25.2284 H   0  0  0  0  0  0  0  0  0  0  0  0
   -8.1489   -5.7331  -24.2654 H   0  0  0  0  0  0  0  0  0  0  0  0
   -7.1501   -3.7658  -26.3524 H   0  0  0  0  0  0  0  0  0  0  0  0
   -9.4079   -4.1052  -27.3589 H   0  0  0  0  0  0  0  0  0  0  0  0
   -9.7633   -5.3052  -26.1384 H   0  0  0  0  0  0  0  0  0  0  0  0
   -7.4223   -5.5190  -28.1122 H   0  0  0  0  0  0  0  0  0  0  0  0
   -7.9592   -6.7859  -27.0069 H   0  0  0  0  0  0  0  0  0  0  0  0
   -8.9917   -6.2903  -28.3493 H   0  0  0  0  0  0  0  0  0  0  0  0
  1  2  1  0
  2  3  1  0
  3  4  1  0
  4  5  1  0
  5  6  1  0
  6  7  1  0
  7  8  2  0
  7  9  1  0
  9 10  1  0
 10 11  2  0
 11 12  1  0
 12 13  2  0
 13 14  1  0
 14 15  2  0
 15 16  1  0
 16 17  2  0
 17 18  1  0
 18 19  2  0
 18 20  1  0
 17 21  1  0
 16 22  1  0
 15 23  1  0
 13 24  1  0
 11 25  1  0
  9 26  1  0
  9 27  1  0
  6 28  1  0
 28 29  1  0
 29 30  1  0
 29 31  1  0
 28 32  1  0
 28 33  1  0
  5 34  1  0
  5 35  1  0
  4 36  1  0
  4 37  1  0
  3 38  1  0
  2 39  1  0
  2 40  1  0
  1 41  1  0
  1 42  1  0
  1 43  1  0
 29  3  1  0
 19 10  1  0
 19 14  1  0
M  END
>  <cnnaffinities>  (7) 
[4.6944, 4.70926, 4.76945, 4.76943]

>  <score>  (7) 
4.6944

>  <index>  (7) 
6

>  <Smiles>  (7) 
C(C(C1(C(C(N(C(=O)C(c2c(nc(c3c(c(c(c(c23)[H])[H])[H])[H])[H])[H])([H])[H])C(C1([H])[H])([H])[H])([H])[H])([H])[H])[H])([H])[H])([H])([H])[H]

>  <h>  (7) 
<NA>

>  <Training>  (7) 
True

>  <Success>  (7) 
True

>  <enamine_searched>  (7) 
False

>  <enamine_id>  (7) 
nan

$$$$

     RDKit          3D

 44 47  0  0  0  0  0  0  0  0999 V2000
  -10.0990   -5.9869  -27.5764 C   0  0  0  0  0  0  0  0  0  0  0  0
   -8.9768   -5.2911  -26.8010 C   0  0  0  0  0  0  0  0  0  0  0  0
   -9.2313   -5.5149  -25.0455 S   0  0  0  0  0  0  0  0  0  0  0  0
   -9.0462   -6.9201  -24.7286 O   0  0  0  0  0  0  0  0  0  0  0  0
  -10.4769   -4.8284  -24.7202 O   0  0  0  0  0  0  0  0  0  0  0  0
   -7.9598   -4.6943  -24.2746 N   0  0  0  0  0  0  0  0  0  0  0  0
   -7.9926   -3.2103  -24.3165 C   0  0  0  0  0  0  0  0  0  0  0  0
   -8.0636   -3.1464  -22.7696 C   0  0  0  0  0  0  0  0  0  0  0  0
   -8.0657   -4.6853  -22.7743 C   0  0  0  0  0  0  0  0  0  0  0  0
   -7.1832   -5.1278  -22.3097 H   0  0  0  0  0  0  0  0  0  0  0  0
   -8.9735   -5.1352  -22.3638 H   0  0  0  0  0  0  0  0  0  0  0  0
   -6.8668   -2.5236  -22.0680 C   0  0  0  0  0  0  0  0  0  0  0  0
   -5.7065   -2.8086  -22.2268 O   0  0  0  0  0  0  0  0  0  0  0  0
   -7.3660   -1.5376  -21.2127 N   0  0  0  0  0  0  0  0  0  0  0  0
   -6.5992   -0.8692  -20.1999 C   0  0  0  0  0  0  0  0  0  0  0  0
   -6.9175   -1.0619  -18.8760 C   0  0  0  0  0  0  0  0  0  0  0  0
   -6.2254   -0.5433  -17.8286 N   0  0  0  0  0  0  0  0  0  0  0  0
   -5.1838    0.2027  -18.0994 C   0  0  0  0  0  0  0  0  0  0  0  0
   -4.7494    0.5162  -19.4152 C   0  0  0  0  0  0  0  0  0  0  0  0
   -3.6182    1.3506  -19.6381 C   0  0  0  0  0  0  0  0  0  0  0  0
   -3.2270    1.6578  -20.9119 C   0  0  0  0  0  0  0  0  0  0  0  0
   -3.9561    1.1453  -22.0069 C   0  0  0  0  0  0  0  0  0  0  0  0
   -5.0510    0.3369  -21.8158 C   0  0  0  0  0  0  0  0  0  0  0  0
   -5.4778   -0.0189  -20.5062 C   0  0  0  0  0  0  0  0  0  0  0  0
   -5.6002   -0.0395  -22.6716 H   0  0  0  0  0  0  0  0  0  0  0  0
   -3.6495    1.4018  -23.0158 H   0  0  0  0  0  0  0  0  0  0  0  0
   -2.3708    2.3052  -21.0901 H   0  0  0  0  0  0  0  0  0  0  0  0
   -3.0812    1.7440  -18.7786 H   0  0  0  0  0  0  0  0  0  0  0  0
   -4.6287    0.6034  -17.2495 H   0  0  0  0  0  0  0  0  0  0  0  0
   -7.7641   -1.6845  -18.6012 H   0  0  0  0  0  0  0  0  0  0  0  0
   -8.7586   -1.3828  -21.4054 C   0  0  0  0  0  0  0  0  0  0  0  0
   -9.4346   -0.4622  -21.0076 O   0  0  0  0  0  0  0  0  0  0  0  0
   -9.1708   -2.4474  -22.1723 N   0  0  0  0  0  0  0  0  0  0  0  0
  -10.5608   -2.6984  -22.4956 C   0  0  0  0  0  0  0  0  0  0  0  0
  -10.7623   -2.4919  -23.5536 H   0  0  0  0  0  0  0  0  0  0  0  0
  -10.8338   -3.7403  -22.2831 H   0  0  0  0  0  0  0  0  0  0  0  0
  -11.1473   -2.0249  -21.8695 H   0  0  0  0  0  0  0  0  0  0  0  0
   -7.0644   -2.8222  -24.7354 H   0  0  0  0  0  0  0  0  0  0  0  0
   -8.8527   -2.7780  -24.8396 H   0  0  0  0  0  0  0  0  0  0  0  0
   -8.9696   -4.2084  -26.9715 H   0  0  0  0  0  0  0  0  0  0  0  0
   -7.9883   -5.7036  -27.0236 H   0  0  0  0  0  0  0  0  0  0  0  0
  -11.0762   -5.5755  -27.3049 H   0  0  0  0  0  0  0  0  0  0  0  0
   -9.9530   -5.8508  -28.6521 H   0  0  0  0  0  0  0  0  0  0  0  0
  -10.1099   -7.0607  -27.3611 H   0  0  0  0  0  0  0  0  0  0  0  0
  1  2  1  0
  2  3  1  0
  3  4  2  0
  3  5  2  0
  3  6  1  0
  6  7  1  0
  7  8  1  0
  8  9  1  0
  9 10  1  0
  9 11  1  0
  8 12  1  0
 12 13  2  0
 12 14  1  0
 14 15  1  0
 15 16  2  0
 16 17  1  0
 17 18  2  0
 18 19  1  0
 19 20  2  0
 20 21  1  0
 21 22  2  0
 22 23  1  0
 23 24  2  0
 23 25  1  0
 22 26  1  0
 21 27  1  0
 20 28  1  0
 18 29  1  0
 16 30  1  0
 14 31  1  0
 31 32  2  0
 31 33  1  0
 33 34  1  0
 34 35  1  0
 34 36  1  0
 34 37  1  0
  7 38  1  0
  7 39  1  0
  2 40  1  0
  2 41  1  0
  1 42  1  0
  1 43  1  0
  1 44  1  0
  9  6  1  0
 24 15  1  0
 33  8  1  0
 24 19  1  0
M  END
>  <cnnaffinities>  (8) 
[5.30321, 5.30639, 5.30515, 5.26702, 5.25245]

>  <score>  (8) 
5.30321

>  <index>  (8) 
7

>  <Smiles>  (8) 
C(C(S(=O)(=O)N1C(C2(C1([H])[H])C(=O)N(c1c(nc(c3c(c(c(c(c13)[H])[H])[H])[H])[H])[H])C(=O)N2C([H])([H])[H])([H])[H])([H])[H])([H])([H])[H]

>  <h>  (8) 
<NA>

>  <Training>  (8) 
True

>  <Success>  (8) 
True

>  <enamine_searched>  (8) 
False

>  <enamine_id>  (8) 
nan

$$$$

     RDKit          3D

 60 64  0  0  0  0  0  0  0  0999 V2000
   -5.0046   -3.8899  -19.2718 C   0  0  0  0  0  0  0  0  0  0  0  0
   -5.6079   -4.5979  -20.3897 N   0  0  0  0  0  0  0  0  0  0  0  0
   -5.9844   -5.8935  -20.3696 C   0  0  0  0  0  0  0  0  0  0  0  0
   -5.6513   -6.6996  -19.5114 O   0  0  0  0  0  0  0  0  0  0  0  0
   -6.9591   -6.3339  -21.4842 C   0  0  0  0  0  0  0  0  0  0  0  0
   -7.1748   -5.3751  -22.5516 N   0  0  0  0  0  0  0  0  0  0  0  0
   -8.1314   -4.2912  -22.3812 C   0  0  0  0  0  0  0  0  0  0  0  0
   -7.6975   -2.9838  -23.0945 C   0  0  2  0  0  0  0  0  0  0  0  0
   -6.6633   -2.2303  -22.2364 C   0  0  0  0  0  0  0  0  0  0  0  0
   -5.4696   -2.4769  -22.1742 O   0  0  0  0  0  0  0  0  0  0  0  0
   -7.2931   -1.2745  -21.4691 N   0  0  0  0  0  0  0  0  0  0  0  0
   -6.6513   -0.6609  -20.3757 C   0  0  0  0  0  0  0  0  0  0  0  0
   -7.1640   -0.7807  -19.1079 C   0  0  0  0  0  0  0  0  0  0  0  0
   -6.5212   -0.3776  -17.9883 N   0  0  0  0  0  0  0  0  0  0  0  0
   -5.3606    0.2175  -18.1384 C   0  0  0  0  0  0  0  0  0  0  0  0
   -4.7735    0.5012  -19.4008 C   0  0  0  0  0  0  0  0  0  0  0  0
   -3.5617    1.2324  -19.5059 C   0  0  0  0  0  0  0  0  0  0  0  0
   -3.0607    1.5829  -20.7294 C   0  0  0  0  0  0  0  0  0  0  0  0
   -3.7448    1.2021  -21.9080 C   0  0  0  0  0  0  0  0  0  0  0  0
   -4.9059    0.4759  -21.8323 C   0  0  0  0  0  0  0  0  0  0  0  0
   -5.4441    0.0867  -20.5719 C   0  0  0  0  0  0  0  0  0  0  0  0
   -5.4273    0.1964  -22.7426 H   0  0  0  0  0  0  0  0  0  0  0  0
   -3.3566    1.5021  -22.8791 H   0  0  0  0  0  0  0  0  0  0  0  0
   -2.1513    2.1727  -20.8122 H   0  0  0  0  0  0  0  0  0  0  0  0
   -3.0611    1.5379  -18.5891 H   0  0  0  0  0  0  0  0  0  0  0  0
   -4.8372    0.5298  -17.2329 H   0  0  0  0  0  0  0  0  0  0  0  0
   -8.1228   -1.2711  -18.9384 H   0  0  0  0  0  0  0  0  0  0  0  0
   -8.7416   -1.3403  -21.6339 C   0  0  0  0  0  0  0  0  0  0  0  0
   -8.8503   -1.9328  -23.0433 C   0  0  2  0  0  0  0  0  0  0  0  0
  -10.2449   -2.3949  -23.4255 C   0  0  0  0  0  0  0  0  0  0  0  0
  -10.8695   -2.9766  -22.3015 O   0  0  0  0  0  0  0  0  0  0  0  0
  -12.2566   -3.1269  -22.4533 C   0  0  0  0  0  0  0  0  0  0  0  0
  -12.5091   -3.9754  -23.1058 H   0  0  0  0  0  0  0  0  0  0  0  0
  -12.6812   -3.3022  -21.4617 H   0  0  0  0  0  0  0  0  0  0  0  0
  -12.7071   -2.2119  -22.8686 H   0  0  0  0  0  0  0  0  0  0  0  0
  -10.8424   -1.5337  -23.7644 H   0  0  0  0  0  0  0  0  0  0  0  0
  -10.1926   -3.1151  -24.2621 H   0  0  0  0  0  0  0  0  0  0  0  0
   -8.5587   -1.1394  -23.7352 H   0  0  0  0  0  0  0  0  0  0  0  0
   -9.2036   -2.0092  -20.9011 H   0  0  0  0  0  0  0  0  0  0  0  0
   -9.1975   -0.3550  -21.5369 H   0  0  0  0  0  0  0  0  0  0  0  0
   -7.1614   -3.3284  -24.4687 C   0  0  0  0  0  0  0  0  0  0  0  0
   -6.9622   -2.3239  -25.4272 C   0  0  0  0  0  0  0  0  0  0  0  0
   -6.4767   -2.6450  -26.6844 C   0  0  0  0  0  0  0  0  0  0  0  0
   -6.2225   -1.3699  -27.8443 Cl  0  0  0  0  0  0  0  0  0  0  0  0
   -6.1582   -3.9556  -27.0416 C   0  0  0  0  0  0  0  0  0  0  0  0
   -6.3165   -4.9463  -26.0935 C   0  0  0  0  0  0  0  0  0  0  0  0
   -6.7837   -4.6354  -24.8160 C   0  0  0  0  0  0  0  0  0  0  0  0
   -6.8029   -5.7500  -23.8207 C   0  0  0  0  0  0  0  0  0  0  0  0
   -6.4707   -6.8890  -24.1065 O   0  0  0  0  0  0  0  0  0  0  0  0
   -6.0644   -5.9818  -26.3056 H   0  0  0  0  0  0  0  0  0  0  0  0
   -5.7750   -4.1711  -28.0356 H   0  0  0  0  0  0  0  0  0  0  0  0
   -7.1769   -1.2872  -25.1936 H   0  0  0  0  0  0  0  0  0  0  0  0
   -8.2582   -4.0869  -21.3205 H   0  0  0  0  0  0  0  0  0  0  0  0
   -9.1015   -4.6036  -22.7818 H   0  0  0  0  0  0  0  0  0  0  0  0
   -6.5287   -7.2260  -21.9395 H   0  0  0  0  0  0  0  0  0  0  0  0
   -7.9176   -6.6505  -21.0419 H   0  0  0  0  0  0  0  0  0  0  0  0
   -5.6101   -4.1140  -21.2757 H   0  0  0  0  0  0  0  0  0  0  0  0
   -4.0068   -3.5144  -19.5314 H   0  0  0  0  0  0  0  0  0  0  0  0
   -5.6149   -3.0269  -18.9831 H   0  0  0  0  0  0  0  0  0  0  0  0
   -4.9670   -4.5537  -18.4057 H   0  0  0  0  0  0  0  0  0  0  0  0
  1  2  1  0
  2  3  1  0
  3  4  2  0
  3  5  1  0
  5  6  1  0
  6  7  1  0
  8  7  1  1
  8  9  1  0
  9 10  2  0
  9 11  1  0
 11 12  1  0
 12 13  2  0
 13 14  1  0
 14 15  2  0
 15 16  1  0
 16 17  2  0
 17 18  1  0
 18 19  2  0
 19 20  1  0
 20 21  2  0
 20 22  1  0
 19 23  1  0
 18 24  1  0
 17 25  1  0
 15 26  1  0
 13 27  1  0
 11 28  1  0
 28 29  1  0
 29 30  1  0
 30 31  1  0
 31 32  1  0
 32 33  1  0
 32 34  1  0
 32 35  1  0
 30 36  1  0
 30 37  1  0
 29 38  1  6
 28 39  1  0
 28 40  1  0
  8 41  1  0
 41 42  2  0
 42 43  1  0
 43 44  1  0
 43 45  2  0
 45 46  1  0
 46 47  2  0
 47 48  1  0
 48 49  2  0
 46 50  1  0
 45 51  1  0
 42 52  1  0
  7 53  1  0
  7 54  1  0
  5 55  1  0
  5 56  1  0
  2 57  1  0
  1 58  1  0
  1 59  1  0
  1 60  1  0
 48  6  1  0
 29  8  1  0
 47 41  1  0
 21 12  1  0
 21 16  1  0
M  END
>  <cnnaffinities>  (9) 
[6.22045, 6.21173]

>  <score>  (9) 
6.22045

>  <index>  (9) 
8

>  <Smiles>  (9) 
C(N(C(=O)C(N1C([C@@]2(C(=O)N(c3c(nc(c4c(c(c(c(c34)[H])[H])[H])[H])[H])[H])C([C@@]2(C(OC([H])([H])[H])([H])[H])[H])([H])[H])c2c(c(Cl)c(c(c2C1=O)[H])[H])[H])([H])[H])([H])[H])[H])([H])([H])[H]

>  <h>  (9) 
<NA>

>  <Training>  (9) 
True

>  <Success>  (9) 
True

>  <enamine_searched>  (9) 
False

>  <enamine_id>  (9) 
nan

$$$$

     RDKit          3D

 41 43  0  0  0  0  0  0  0  0999 V2000
  -13.1681   -2.9316  -22.7926 C   0  0  0  0  0  0  0  0  0  0  0  0
  -11.9723   -2.0512  -23.1920 C   0  0  1  0  0  0  0  0  0  0  0  0
  -12.1591   -0.6516  -22.6407 C   0  0  0  0  0  0  0  0  0  0  0  0
  -11.3109    0.3564  -22.8247 C   0  0  0  0  0  0  0  0  0  0  0  0
  -10.0072    0.2148  -23.5871 C   0  0  0  0  0  0  0  0  0  0  0  0
   -9.0772   -0.7834  -23.0498 N   0  0  0  0  0  0  0  0  0  0  0  0
   -8.3706   -0.3988  -21.9329 C   0  0  0  0  0  0  0  0  0  0  0  0
   -8.5039    0.7220  -21.4710 O   0  0  0  0  0  0  0  0  0  0  0  0
   -7.4275   -1.4282  -21.2787 C   0  0  0  0  0  0  0  0  0  0  0  0
   -6.5821   -0.8270  -20.1851 C   0  0  0  0  0  0  0  0  0  0  0  0
   -6.8863   -1.0370  -18.8677 C   0  0  0  0  0  0  0  0  0  0  0  0
   -6.2050   -0.5300  -17.8041 N   0  0  0  0  0  0  0  0  0  0  0  0
   -5.1640    0.2168  -18.0694 C   0  0  0  0  0  0  0  0  0  0  0  0
   -4.7263    0.5306  -19.3828 C   0  0  0  0  0  0  0  0  0  0  0  0
   -3.6006    1.3585  -19.6231 C   0  0  0  0  0  0  0  0  0  0  0  0
   -3.2114    1.6523  -20.8988 C   0  0  0  0  0  0  0  0  0  0  0  0
   -3.9348    1.1250  -21.9944 C   0  0  0  0  0  0  0  0  0  0  0  0
   -5.0277    0.3213  -21.7890 C   0  0  0  0  0  0  0  0  0  0  0  0
   -5.4553   -0.0001  -20.4754 C   0  0  0  0  0  0  0  0  0  0  0  0
   -5.5865   -0.0651  -22.6370 H   0  0  0  0  0  0  0  0  0  0  0  0
   -3.6269    1.3731  -23.0052 H   0  0  0  0  0  0  0  0  0  0  0  0
   -2.3586    2.3011  -21.0847 H   0  0  0  0  0  0  0  0  0  0  0  0
   -3.0637    1.7616  -18.7677 H   0  0  0  0  0  0  0  0  0  0  0  0
   -4.6104    0.6177  -17.2171 H   0  0  0  0  0  0  0  0  0  0  0  0
   -7.7343   -1.6596  -18.5838 H   0  0  0  0  0  0  0  0  0  0  0  0
   -6.8072   -1.9005  -22.0520 H   0  0  0  0  0  0  0  0  0  0  0  0
   -8.0472   -2.2345  -20.8564 H   0  0  0  0  0  0  0  0  0  0  0  0
   -9.3833   -2.1657  -23.3898 C   0  0  0  0  0  0  0  0  0  0  0  0
  -10.6582   -2.7218  -22.7424 C   0  0  0  0  0  0  0  0  0  0  0  0
  -10.5935   -2.6477  -21.6495 H   0  0  0  0  0  0  0  0  0  0  0  0
  -10.7288   -3.7916  -22.9795 H   0  0  0  0  0  0  0  0  0  0  0  0
   -8.5171   -2.7857  -23.1412 H   0  0  0  0  0  0  0  0  0  0  0  0
   -9.5027   -2.1982  -24.4810 H   0  0  0  0  0  0  0  0  0  0  0  0
  -10.2132   -0.1021  -24.6156 H   0  0  0  0  0  0  0  0  0  0  0  0
   -9.4873    1.1743  -23.6208 H   0  0  0  0  0  0  0  0  0  0  0  0
  -11.5343    1.3356  -22.3980 H   0  0  0  0  0  0  0  0  0  0  0  0
  -13.0433   -0.4940  -22.0182 H   0  0  0  0  0  0  0  0  0  0  0  0
  -11.9133   -1.9570  -24.2909 H   0  0  0  0  0  0  0  0  0  0  0  0
  -13.0378   -3.9802  -23.0931 H   0  0  0  0  0  0  0  0  0  0  0  0
  -13.2862   -2.9442  -21.6973 H   0  0  0  0  0  0  0  0  0  0  0  0
  -14.0908   -2.5336  -23.2369 H   0  0  0  0  0  0  0  0  0  0  0  0
  1  2  1  0
  2  3  1  0
  3  4  2  0
  4  5  1  0
  5  6  1  0
  6  7  1  0
  7  8  2  0
  7  9  1  0
  9 10  1  0
 10 11  2  0
 11 12  1  0
 12 13  2  0
 13 14  1  0
 14 15  2  0
 15 16  1  0
 16 17  2  0
 17 18  1  0
 18 19  2  0
 18 20  1  0
 17 21  1  0
 16 22  1  0
 15 23  1  0
 13 24  1  0
 11 25  1  0
  9 26  1  0
  9 27  1  0
  6 28  1  0
 28 29  1  0
 29 30  1  0
 29 31  1  0
 28 32  1  0
 28 33  1  0
  5 34  1  0
  5 35  1  0
  4 36  1  0
  3 37  1  0
  2 38  1  6
  1 39  1  0
  1 40  1  0
  1 41  1  0
 29  2  1  0
 19 10  1  0
 19 14  1  0
M  END
>  <cnnaffinities>  (10) 
[5.1459, 4.7256, 4.73519, 4.7292]

>  <score>  (10) 
5.1459

>  <index>  (10) 
9

>  <Smiles>  (10) 
C([C@]1(C(=C(C(N(C(=O)C(c2c(nc(c3c(c(c(c(c23)[H])[H])[H])[H])[H])[H])([H])[H])C(C1([H])[H])([H])[H])([H])[H])[H])[H])[H])([H])([H])[H]

>  <h>  (10) 
<NA>

>  <Training>  (10) 
True

>  <Success>  (10) 
True

>  <enamine_searched>  (10) 
False

>  <enamine_id>  (10) 
nan

$$$$

     RDKit          3D

 57 62  0  0  0  0  0  0  0  0999 V2000
   -7.5193   -3.5012  -23.7829 C   0  0  0  0  0  0  0  0  0  0  0  0
   -8.4109   -2.8769  -22.7067 C   0  0  1  0  0  0  0  0  0  0  0  0
   -7.7090   -2.7137  -21.3478 C   0  0  0  0  0  0  0  0  0  0  0  0
   -7.3918   -1.3075  -21.2794 N   0  0  0  0  0  0  0  0  0  0  0  0
   -6.6079   -0.7778  -20.2334 C   0  0  0  0  0  0  0  0  0  0  0  0
   -6.9115   -1.0557  -18.9233 C   0  0  0  0  0  0  0  0  0  0  0  0
   -6.2354   -0.5681  -17.8546 N   0  0  0  0  0  0  0  0  0  0  0  0
   -5.1953    0.1915  -18.1046 C   0  0  0  0  0  0  0  0  0  0  0  0
   -4.7428    0.5184  -19.4156 C   0  0  0  0  0  0  0  0  0  0  0  0
   -3.6014    1.3344  -19.6321 C   0  0  0  0  0  0  0  0  0  0  0  0
   -3.1813    1.6175  -20.9034 C   0  0  0  0  0  0  0  0  0  0  0  0
   -3.8777    1.0990  -22.0181 C   0  0  0  0  0  0  0  0  0  0  0  0
   -4.9865    0.3112  -21.8380 C   0  0  0  0  0  0  0  0  0  0  0  0
   -5.4564    0.0164  -20.5253 C   0  0  0  0  0  0  0  0  0  0  0  0
   -5.5176   -0.0925  -22.6939 H   0  0  0  0  0  0  0  0  0  0  0  0
   -3.5374    1.3386  -23.0240 H   0  0  0  0  0  0  0  0  0  0  0  0
   -2.3145    2.2512  -21.0645 H   0  0  0  0  0  0  0  0  0  0  0  0
   -3.0776    1.7265  -18.7657 H   0  0  0  0  0  0  0  0  0  0  0  0
   -4.6499    0.5886  -17.2481 H   0  0  0  0  0  0  0  0  0  0  0  0
   -7.7696   -1.6827  -18.6844 H   0  0  0  0  0  0  0  0  0  0  0  0
   -8.2119   -0.5296  -22.0732 C   0  0  0  0  0  0  0  0  0  0  0  0
   -8.2661    0.6773  -22.0127 O   0  0  0  0  0  0  0  0  0  0  0  0
   -9.0058   -1.4719  -23.0170 C   0  0  1  0  0  0  0  0  0  0  0  0
   -8.8371   -1.0572  -24.4968 C   0  0  0  0  0  0  0  0  0  0  0  0
   -9.4562    0.2249  -24.7944 N   0  0  0  0  0  0  0  0  0  0  0  0
   -8.7239    1.2071  -25.5824 C   0  0  0  0  0  0  0  0  0  0  0  0
   -7.9095    2.1261  -24.7182 C   0  0  0  0  0  0  0  0  0  0  0  0
   -6.6044    2.1194  -24.3421 C   0  0  0  0  0  0  0  0  0  0  0  0
   -6.4274    3.1691  -23.4682 N   0  0  0  0  0  4  0  0  0  0  0  0
   -7.5915    3.8036  -23.3118 C   0  0  0  0  0  0  0  0  0  0  0  0
   -8.5079    3.1944  -24.0737 N   0  0  0  0  0  0  0  0  0  0  0  0
   -9.5121    3.3593  -24.0894 H   0  0  0  0  0  0  0  0  0  0  0  0
   -7.7419    4.6593  -22.6759 H   0  0  0  0  0  0  0  0  0  0  0  0
   -5.6055    3.3112  -22.8911 H   0  0  0  0  0  0  0  0  0  0  0  0
   -5.7642    1.4834  -24.5893 H   0  0  0  0  0  0  0  0  0  0  0  0
   -9.4735    1.7797  -26.1415 H   0  0  0  0  0  0  0  0  0  0  0  0
   -8.1015    0.6728  -26.3050 H   0  0  0  0  0  0  0  0  0  0  0  0
  -10.6141    0.6469  -24.2186 C   0  0  0  0  0  0  0  0  0  0  0  0
  -11.1176    1.7375  -24.4962 O   0  0  0  0  0  0  0  0  0  0  0  0
  -11.2456   -0.3267  -23.2743 C   0  0  0  0  0  0  0  0  0  0  0  0
  -12.6007   -0.1799  -22.9841 C   0  0  0  0  0  0  0  0  0  0  0  0
  -13.2822   -1.1306  -22.2473 C   0  0  0  0  0  0  0  0  0  0  0  0
  -12.5321   -2.1904  -21.7427 C   0  0  0  0  0  0  0  0  0  0  0  0
  -13.1648   -3.1404  -21.0360 F   0  0  0  0  0  0  0  0  0  0  0  0
  -11.1710   -2.3116  -21.9268 C   0  0  0  0  0  0  0  0  0  0  0  0
  -10.5004   -1.3897  -22.7371 C   0  0  0  0  0  0  0  0  0  0  0  0
  -10.6859   -3.1574  -21.4481 H   0  0  0  0  0  0  0  0  0  0  0  0
  -14.3519   -1.0747  -22.0487 H   0  0  0  0  0  0  0  0  0  0  0  0
  -13.1092    0.6940  -23.3796 H   0  0  0  0  0  0  0  0  0  0  0  0
   -9.2789   -1.8565  -25.1107 H   0  0  0  0  0  0  0  0  0  0  0  0
   -7.7788   -0.9707  -24.7408 H   0  0  0  0  0  0  0  0  0  0  0  0
   -6.7944   -3.3045  -21.2578 H   0  0  0  0  0  0  0  0  0  0  0  0
   -8.3787   -2.9932  -20.5237 H   0  0  0  0  0  0  0  0  0  0  0  0
   -9.2333   -3.5816  -22.6043 H   0  0  0  0  0  0  0  0  0  0  0  0
   -6.6318   -2.8988  -24.0034 H   0  0  0  0  0  0  0  0  0  0  0  0
   -7.1994   -4.4965  -23.4557 H   0  0  0  0  0  0  0  0  0  0  0  0
   -8.0882   -3.6356  -24.7088 H   0  0  0  0  0  0  0  0  0  0  0  0
  1  2  1  0
  2  3  1  0
  3  4  1  0
  4  5  1  0
  5  6  2  0
  6  7  1  0
  7  8  2  0
  8  9  1  0
  9 10  2  0
 10 11  1  0
 11 12  2  0
 12 13  1  0
 13 14  2  0
 13 15  1  0
 12 16  1  0
 11 17  1  0
 10 18  1  0
  8 19  1  0
  6 20  1  0
  4 21  1  0
 21 22  2  0
 21 23  1  0
 23 24  1  6
 24 25  1  0
 25 26  1  0
 26 27  1  0
 27 28  2  0
 28 29  1  0
 29 30  2  0
 30 31  1  0
 31 32  1  0
 30 33  1  0
 29 34  1  0
 28 35  1  0
 26 36  1  0
 26 37  1  0
 25 38  1  0
 38 39  2  0
 38 40  1  0
 40 41  2  0
 41 42  1  0
 42 43  2  0
 43 44  1  0
 43 45  1  0
 45 46  2  0
 45 47  1  0
 42 48  1  0
 41 49  1  0
 24 50  1  0
 24 51  1  0
  3 52  1  0
  3 53  1  0
  2 54  1  1
  1 55  1  0
  1 56  1  0
  1 57  1  0
 23  2  1  0
 31 27  1  0
 46 40  1  0
 14  5  1  0
 46 23  1  0
 14  9  1  0
M  CHG  1  29   1
M  END
>  <cnnaffinities>  (11) 
[6.40644]

>  <score>  (11) 
6.40644

>  <index>  (11) 
10

>  <Smiles>  (11) 
C([C@]1(C(N(c2c(nc(c3c(c(c(c(c23)[H])[H])[H])[H])[H])[H])C(=O)[C@]21C(N(C(c1c([n+](c(n1[H])[H])[H])[H])([H])[H])C(=O)c1c(c(c(F)c(c21)[H])[H])[H])([H])[H])([H])[H])[H])([H])([H])[H]

>  <h>  (11) 
<NA>

>  <Training>  (11) 
True

>  <Success>  (11) 
True

>  <enamine_searched>  (11) 
False

>  <enamine_id>  (11) 
nan

$$$$

     RDKit          3D

 48 52  0  0  0  0  0  0  0  0999 V2000
   -9.8141   -0.9926  -23.9195 C   0  0  0  0  0  0  0  0  0  0  0  0
   -8.7589   -1.4039  -23.0206 N   0  0  0  0  0  0  0  0  0  0  0  0
   -8.5000   -0.7627  -21.8322 C   0  0  0  0  0  0  0  0  0  0  0  0
   -9.1043    0.1627  -21.3418 O   0  0  0  0  0  0  0  0  0  0  0  0
   -7.3731   -1.3979  -21.2743 N   0  0  0  0  0  0  0  0  0  0  0  0
   -6.5914   -0.8279  -20.2189 C   0  0  0  0  0  0  0  0  0  0  0  0
   -6.9150   -1.0578  -18.9081 C   0  0  0  0  0  0  0  0  0  0  0  0
   -6.2254   -0.5527  -17.8500 N   0  0  0  0  0  0  0  0  0  0  0  0
   -5.1823    0.1986  -18.0983 C   0  0  0  0  0  0  0  0  0  0  0  0
   -4.7285    0.5217  -19.4060 C   0  0  0  0  0  0  0  0  0  0  0  0
   -3.5999    1.3544  -19.6341 C   0  0  0  0  0  0  0  0  0  0  0  0
   -3.2084    1.6517  -20.9099 C   0  0  0  0  0  0  0  0  0  0  0  0
   -3.9279    1.1314  -22.0081 C   0  0  0  0  0  0  0  0  0  0  0  0
   -5.0213    0.3292  -21.8100 C   0  0  0  0  0  0  0  0  0  0  0  0
   -5.4509   -0.0031  -20.5001 C   0  0  0  0  0  0  0  0  0  0  0  0
   -5.5840   -0.0467  -22.6566 H   0  0  0  0  0  0  0  0  0  0  0  0
   -3.6260    1.3783  -23.0193 H   0  0  0  0  0  0  0  0  0  0  0  0
   -2.3561    2.2996  -21.0931 H   0  0  0  0  0  0  0  0  0  0  0  0
   -3.0678    1.7556  -18.7770 H   0  0  0  0  0  0  0  0  0  0  0  0
   -4.6389    0.5969  -17.2405 H   0  0  0  0  0  0  0  0  0  0  0  0
   -7.7631   -1.6837  -18.6434 H   0  0  0  0  0  0  0  0  0  0  0  0
   -6.9142   -2.4284  -22.0988 C   0  0  0  0  0  0  0  0  0  0  0  0
   -5.9553   -3.1209  -21.8777 O   0  0  0  0  0  0  0  0  0  0  0  0
   -7.8284   -2.4580  -23.3188 C   0  0  0  0  0  0  0  0  0  0  0  0
   -8.3851   -3.8485  -23.7208 C   0  0  0  0  0  0  0  0  0  0  0  0
   -7.6364   -3.8077  -24.9987 N   0  0  0  0  0  0  0  0  0  0  0  0
   -8.5442   -3.8990  -26.4244 S   0  0  0  0  0  0  0  0  0  0  0  0
   -7.5940   -3.8500  -27.5170 O   0  0  0  0  0  0  0  0  0  0  0  0
   -9.6314   -2.9287  -26.3146 O   0  0  0  0  0  0  0  0  0  0  0  0
   -9.3021   -5.4955  -26.4296 C   0  0  0  0  0  0  0  0  0  0  0  0
   -8.5823   -6.5874  -26.8922 C   0  0  0  0  0  0  0  0  0  0  0  0
   -9.2150   -7.8222  -26.9415 C   0  0  0  0  0  0  0  0  0  0  0  0
  -10.5400   -7.9681  -26.5548 C   0  0  0  0  0  0  0  0  0  0  0  0
  -11.2515   -6.8618  -26.0991 C   0  0  0  0  0  0  0  0  0  0  0  0
  -10.6297   -5.6250  -26.0362 C   0  0  0  0  0  0  0  0  0  0  0  0
  -11.1748   -4.7583  -25.6963 H   0  0  0  0  0  0  0  0  0  0  0  0
  -12.2891   -6.9434  -25.7906 H   0  0  0  0  0  0  0  0  0  0  0  0
  -10.9966   -8.9526  -26.6300 H   0  0  0  0  0  0  0  0  0  0  0  0
   -8.6883   -8.6841  -27.3173 H   0  0  0  0  0  0  0  0  0  0  0  0
   -7.5599   -6.4640  -27.2338 H   0  0  0  0  0  0  0  0  0  0  0  0
   -7.0961   -2.4452  -24.6876 C   0  0  0  0  0  0  0  0  0  0  0  0
   -7.3865   -1.6471  -25.3824 H   0  0  0  0  0  0  0  0  0  0  0  0
   -6.0093   -2.4814  -24.6039 H   0  0  0  0  0  0  0  0  0  0  0  0
   -8.0174   -4.6631  -23.0985 H   0  0  0  0  0  0  0  0  0  0  0  0
   -9.4764   -3.9204  -23.8137 H   0  0  0  0  0  0  0  0  0  0  0  0
  -10.4616   -1.8428  -24.1615 H   0  0  0  0  0  0  0  0  0  0  0  0
   -9.4008   -0.5984  -24.8562 H   0  0  0  0  0  0  0  0  0  0  0  0
  -10.3763   -0.2114  -23.4054 H   0  0  0  0  0  0  0  0  0  0  0  0
  1  2  1  0
  2  3  1  0
  3  4  2  0
  3  5  1  0
  5  6  1  0
  6  7  2  0
  7  8  1  0
  8  9  2  0
  9 10  1  0
 10 11  2  0
 11 12  1  0
 12 13  2  0
 13 14  1  0
 14 15  2  0
 14 16  1  0
 13 17  1  0
 12 18  1  0
 11 19  1  0
  9 20  1  0
  7 21  1  0
  5 22  1  0
 22 23  2  0
 22 24  1  0
 24 25  1  0
 25 26  1  0
 26 27  1  0
 27 28  2  0
 27 29  2  0
 27 30  1  0
 30 31  2  0
 31 32  1  0
 32 33  2  0
 33 34  1  0
 34 35  2  0
 35 36  1  0
 34 37  1  0
 33 38  1  0
 32 39  1  0
 31 40  1  0
 26 41  1  0
 41 42  1  0
 41 43  1  0
 25 44  1  0
 25 45  1  0
  1 46  1  0
  1 47  1  0
  1 48  1  0
 24  2  1  0
 35 30  1  0
 15  6  1  0
 41 24  1  0
 15 10  1  0
M  END
>  <cnnaffinities>  (12) 
[5.52827, 5.50721, 5.49845]

>  <score>  (12) 
5.52827

>  <index>  (12) 
11

>  <Smiles>  (12) 
C(N1C(=O)N(c2c(nc(c3c(c(c(c(c23)[H])[H])[H])[H])[H])[H])C(=O)C21C(N(S(=O)(=O)c1c(c(c(c(c1[H])[H])[H])[H])[H])C2([H])[H])([H])[H])([H])([H])[H]

>  <h>  (12) 
<NA>

>  <Training>  (12) 
True

>  <Success>  (12) 
True

>  <enamine_searched>  (12) 
False

>  <enamine_id>  (12) 
nan

$$$$

     RDKit          3D

 76 82  0  0  0  0  0  0  0  0999 V2000
  -10.2379    1.4535  -25.7087 O   0  0  0  0  0  0  0  0  0  0  0  0
   -9.9333    0.5130  -24.9831 C   0  0  0  0  0  0  0  0  0  0  0  0
  -10.9178   -0.0889  -24.0327 C   0  0  0  0  0  0  0  0  0  0  0  0
  -12.2283    0.3814  -24.0882 C   0  0  0  0  0  0  0  0  0  0  0  0
  -13.1991   -0.0940  -23.2289 C   0  0  0  0  0  0  0  0  0  0  0  0
  -12.8143   -1.0479  -22.2878 C   0  0  0  0  0  0  0  0  0  0  0  0
  -14.0082   -1.7521  -21.2395 Cl  0  0  0  0  0  0  0  0  0  0  0  0
  -11.5001   -1.4750  -22.1729 C   0  0  0  0  0  0  0  0  0  0  0  0
  -10.5212   -1.0267  -23.0685 C   0  0  0  0  0  0  0  0  0  0  0  0
   -9.0650   -1.4504  -22.9575 C   0  0  1  0  0  0  0  0  0  0  0  0
   -8.4118   -1.3068  -24.3613 C   0  0  0  0  0  0  0  0  0  0  0  0
   -8.6794   -0.0182  -24.9683 N   0  0  0  0  0  0  0  0  0  0  0  0
   -7.6495    0.7108  -25.6822 C   0  0  0  0  0  0  0  0  0  0  0  0
   -7.1407    1.8657  -24.8214 C   0  0  0  0  0  0  0  0  0  0  0  0
   -6.1268    2.6947  -25.5119 N   0  0  0  0  0  4  0  0  0  0  0  0
   -4.9000    1.9179  -25.9448 C   0  0  0  0  0  0  0  0  0  0  0  0
   -3.7580    2.9019  -26.2167 C   0  0  0  0  0  0  0  0  0  0  0  0
   -4.2939    4.1449  -26.6210 O   0  0  0  0  0  0  0  0  0  0  0  0
   -4.8427    4.8261  -25.5084 C   0  0  0  0  0  0  0  0  0  0  0  0
   -5.7684    3.9036  -24.6972 C   0  0  0  0  0  0  0  0  0  0  0  0
   -6.6917    4.4213  -24.4219 H   0  0  0  0  0  0  0  0  0  0  0  0
   -5.2838    3.5754  -23.7688 H   0  0  0  0  0  0  0  0  0  0  0  0
   -5.3858    5.6895  -25.9037 H   0  0  0  0  0  0  0  0  0  0  0  0
   -4.0371    5.1994  -24.8576 H   0  0  0  0  0  0  0  0  0  0  0  0
   -3.1326    3.0274  -25.3184 H   0  0  0  0  0  0  0  0  0  0  0  0
   -3.1186    2.5348  -27.0246 H   0  0  0  0  0  0  0  0  0  0  0  0
   -5.1493    1.3738  -26.8596 H   0  0  0  0  0  0  0  0  0  0  0  0
   -4.6262    1.1941  -25.1690 H   0  0  0  0  0  0  0  0  0  0  0  0
   -6.5615    3.0549  -26.3839 H   0  0  0  0  0  0  0  0  0  0  0  0
   -7.9899    2.5042  -24.5493 H   0  0  0  0  0  0  0  0  0  0  0  0
   -6.7218    1.4786  -23.8817 H   0  0  0  0  0  0  0  0  0  0  0  0
   -8.0908    1.0966  -26.6089 H   0  0  0  0  0  0  0  0  0  0  0  0
   -6.8440    0.0138  -25.9385 H   0  0  0  0  0  0  0  0  0  0  0  0
   -7.3281   -1.4449  -24.2787 H   0  0  0  0  0  0  0  0  0  0  0  0
   -8.8027   -2.1015  -25.0073 H   0  0  0  0  0  0  0  0  0  0  0  0
   -8.2987   -0.5482  -21.9649 C   0  0  0  0  0  0  0  0  0  0  0  0
   -8.3745    0.6596  -21.8544 O   0  0  0  0  0  0  0  0  0  0  0  0
   -7.4536   -1.3385  -21.2229 N   0  0  0  0  0  0  0  0  0  0  0  0
   -6.6273   -0.8196  -20.2064 C   0  0  0  0  0  0  0  0  0  0  0  0
   -6.9286   -1.0726  -18.8910 C   0  0  0  0  0  0  0  0  0  0  0  0
   -6.2457   -0.5764  -17.8311 N   0  0  0  0  0  0  0  0  0  0  0  0
   -5.2070    0.1805  -18.1003 C   0  0  0  0  0  0  0  0  0  0  0  0
   -4.7695    0.4957  -19.4186 C   0  0  0  0  0  0  0  0  0  0  0  0
   -3.6359    1.3217  -19.6384 C   0  0  0  0  0  0  0  0  0  0  0  0
   -3.2203    1.6046  -20.9119 C   0  0  0  0  0  0  0  0  0  0  0  0
   -3.9093    1.0681  -22.0224 C   0  0  0  0  0  0  0  0  0  0  0  0
   -5.0115    0.2667  -21.8355 C   0  0  0  0  0  0  0  0  0  0  0  0
   -5.4833   -0.0253  -20.5206 C   0  0  0  0  0  0  0  0  0  0  0  0
   -5.5339   -0.1291  -22.7005 H   0  0  0  0  0  0  0  0  0  0  0  0
   -3.5603    1.2957  -23.0276 H   0  0  0  0  0  0  0  0  0  0  0  0
   -2.3567    2.2418  -21.0717 H   0  0  0  0  0  0  0  0  0  0  0  0
   -3.1144    1.7211  -18.7731 H   0  0  0  0  0  0  0  0  0  0  0  0
   -4.6480    0.5906  -17.2576 H   0  0  0  0  0  0  0  0  0  0  0  0
   -7.7912   -1.6959  -18.6613 H   0  0  0  0  0  0  0  0  0  0  0  0
   -7.5219   -2.7383  -21.5448 C   0  0  0  0  0  0  0  0  0  0  0  0
   -8.8168   -2.8674  -22.3468 C   0  0  2  0  0  0  0  0  0  0  0  0
   -8.6952   -4.0384  -23.3134 C   0  0  0  0  0  0  0  0  0  0  0  0
   -9.9099   -4.2530  -24.0594 N   0  0  0  0  0  0  0  0  0  0  0  0
   -9.9818   -5.2273  -24.9995 C   0  0  0  0  0  0  0  0  0  0  0  0
  -11.1566   -5.3758  -25.6365 N   0  0  0  0  0  0  0  0  0  0  0  0
  -11.1642   -6.2456  -26.6374 C   0  0  0  0  0  0  0  0  0  0  0  0
  -10.0483   -6.9797  -27.0202 C   0  0  0  0  0  0  0  0  0  0  0  0
   -8.9204   -6.8235  -26.2274 C   0  0  0  0  0  0  0  0  0  0  0  0
   -8.8681   -5.9614  -25.2135 N   0  0  0  0  0  0  0  0  0  0  0  0
   -8.0133   -7.4076  -26.4116 H   0  0  0  0  0  0  0  0  0  0  0  0
  -10.0703   -7.6331  -27.8855 H   0  0  0  0  0  0  0  0  0  0  0  0
  -12.1029   -6.3748  -27.1800 H   0  0  0  0  0  0  0  0  0  0  0  0
  -10.7352   -3.6949  -23.8784 H   0  0  0  0  0  0  0  0  0  0  0  0
   -8.4559   -4.9554  -22.7593 H   0  0  0  0  0  0  0  0  0  0  0  0
   -7.8687   -3.8622  -24.0222 H   0  0  0  0  0  0  0  0  0  0  0  0
   -9.6347   -3.0859  -21.6485 H   0  0  0  0  0  0  0  0  0  0  0  0
   -6.6564   -3.0686  -22.1397 H   0  0  0  0  0  0  0  0  0  0  0  0
   -7.5290   -3.3393  -20.6379 H   0  0  0  0  0  0  0  0  0  0  0  0
  -11.2654   -2.1406  -21.3514 H   0  0  0  0  0  0  0  0  0  0  0  0
  -14.2191    0.2803  -23.2739 H   0  0  0  0  0  0  0  0  0  0  0  0
  -12.4410    1.1503  -24.8195 H   0  0  0  0  0  0  0  0  0  0  0  0
  1  2  2  0
  2  3  1  0
  3  4  2  0
  4  5  1  0
  5  6  2  0
  6  7  1  0
  6  8  1  0
  8  9  2  0
  9 10  1  0
 10 11  1  6
 11 12  1  0
 12 13  1  0
 13 14  1  0
 14 15  1  0
 15 16  1  0
 16 17  1  0
 17 18  1  0
 18 19  1  0
 19 20  1  0
 20 21  1  0
 20 22  1  0
 19 23  1  0
 19 24  1  0
 17 25  1  0
 17 26  1  0
 16 27  1  0
 16 28  1  0
 15 29  1  0
 14 30  1  0
 14 31  1  0
 13 32  1  0
 13 33  1  0
 11 34  1  0
 11 35  1  0
 10 36  1  0
 36 37  2  0
 36 38  1  0
 38 39  1  0
 39 40  2  0
 40 41  1  0
 41 42  2  0
 42 43  1  0
 43 44  2  0
 44 45  1  0
 45 46  2  0
 46 47  1  0
 47 48  2  0
 47 49  1  0
 46 50  1  0
 45 51  1  0
 44 52  1  0
 42 53  1  0
 40 54  1  0
 38 55  1  0
 55 56  1  0
 56 57  1  0
 57 58  1  0
 58 59  1  0
 59 60  2  0
 60 61  1  0
 61 62  2  0
 62 63  1  0
 63 64  2  0
 63 65  1  0
 62 66  1  0
 61 67  1  0
 58 68  1  0
 57 69  1  0
 57 70  1  0
 56 71  1  1
 55 72  1  0
 55 73  1  0
  8 74  1  0
  5 75  1  0
  4 76  1  0
 12  2  1  0
 20 15  1  0
 48 39  1  0
 64 59  1  0
  9  3  1  0
 56 10  1  0
 48 43  1  0
M  CHG  1  15   1
M  END
>  <cnnaffinities>  (13) 
[6.76555, 6.44798, 7.19896, 6.64846, 6.34361]

>  <score>  (13) 
6.76555

>  <index>  (13) 
12

>  <Smiles>  (13) 
O=C1c2c(c(c(Cl)c(c2[C@@]2(C(N1C(C([N+]1(C(C(OC(C1([H])[H])([H])[H])([H])[H])([H])[H])[H])([H])[H])([H])[H])([H])[H])C(=O)N(c1c(nc(c3c(c(c(c(c13)[H])[H])[H])[H])[H])[H])C([C@@]2(C(N(c1nc(c(c(n1)[H])[H])[H])[H])([H])[H])[H])([H])[H])[H])[H])[H]

>  <h>  (13) 
<NA>

>  <Training>  (13) 
True

>  <Success>  (13) 
True

>  <enamine_searched>  (13) 
False

>  <enamine_id>  (13) 
nan

$$$$

     RDKit          3D

 69 74  0  0  0  0  0  0  0  0999 V2000
   -7.7485    3.0197  -22.2816 C   0  0  0  0  0  0  0  0  0  0  0  0
   -8.7312    2.5559  -23.2353 N   0  0  0  0  0  0  0  0  0  0  0  0
   -8.2924    1.9552  -24.3703 C   0  0  0  0  0  0  0  0  0  0  0  0
   -7.1078    1.8825  -24.6782 O   0  0  0  0  0  0  0  0  0  0  0  0
   -9.3954    1.2844  -25.1972 C   0  0  0  0  0  0  0  0  0  0  0  0
   -9.9615    0.1509  -24.4793 N   0  0  0  0  0  0  0  0  0  0  0  0
   -9.0297   -0.9206  -24.1804 C   0  0  0  0  0  0  0  0  0  0  0  0
   -9.3023   -1.6680  -22.8377 C   0  0  2  0  0  0  0  0  0  0  0  0
   -8.7504   -0.7983  -21.6690 C   0  0  0  0  0  0  0  0  0  0  0  0
   -9.2892    0.1799  -21.1910 O   0  0  0  0  0  0  0  0  0  0  0  0
   -7.5292   -1.3038  -21.2755 N   0  0  0  0  0  0  0  0  0  0  0  0
   -6.7476   -0.7501  -20.2242 C   0  0  0  0  0  0  0  0  0  0  0  0
   -7.0532   -1.0157  -18.9115 C   0  0  0  0  0  0  0  0  0  0  0  0
   -6.3255   -0.5795  -17.8498 N   0  0  0  0  0  0  0  0  0  0  0  0
   -5.2572    0.1358  -18.1026 C   0  0  0  0  0  0  0  0  0  0  0  0
   -4.8135    0.4802  -19.4124 C   0  0  0  0  0  0  0  0  0  0  0  0
   -3.6515    1.2687  -19.6406 C   0  0  0  0  0  0  0  0  0  0  0  0
   -3.2689    1.5902  -20.9141 C   0  0  0  0  0  0  0  0  0  0  0  0
   -4.0298    1.1488  -22.0196 C   0  0  0  0  0  0  0  0  0  0  0  0
   -5.1588    0.3878  -21.8227 C   0  0  0  0  0  0  0  0  0  0  0  0
   -5.5793    0.0264  -20.5133 C   0  0  0  0  0  0  0  0  0  0  0  0
   -5.7770    0.1254  -22.6769 H   0  0  0  0  0  0  0  0  0  0  0  0
   -3.7405    1.4303  -23.0280 H   0  0  0  0  0  0  0  0  0  0  0  0
   -2.3903    2.2062  -21.0874 H   0  0  0  0  0  0  0  0  0  0  0  0
   -3.0850    1.6219  -18.7820 H   0  0  0  0  0  0  0  0  0  0  0  0
   -4.6748    0.4859  -17.2477 H   0  0  0  0  0  0  0  0  0  0  0  0
   -7.9228   -1.6242  -18.6737 H   0  0  0  0  0  0  0  0  0  0  0  0
   -7.0969   -2.4546  -22.0420 C   0  0  0  0  0  0  0  0  0  0  0  0
   -8.3964   -2.9331  -22.7086 C   0  0  2  0  0  0  0  0  0  0  0  0
   -8.1363   -3.7383  -23.9787 C   0  0  0  0  0  0  0  0  0  0  0  0
   -9.3763   -4.2327  -24.5196 N   0  0  0  0  0  0  0  0  0  0  0  0
   -9.4168   -4.8241  -25.7379 C   0  0  0  0  0  0  0  0  0  0  0  0
  -10.6255   -5.3049  -26.2699 C   0  0  0  0  0  0  0  0  0  0  0  0
  -10.5643   -5.8455  -27.5319 C   0  0  0  0  0  0  0  0  0  0  0  0
   -9.4256   -5.9593  -28.2297 N   0  0  0  0  0  0  0  0  0  0  0  0
   -8.3275   -5.5292  -27.6095 C   0  0  0  0  0  0  0  0  0  0  0  0
   -7.0167   -5.7424  -28.3115 C   0  0  0  0  0  0  0  0  0  0  0  0
   -7.1614   -5.6890  -29.3928 H   0  0  0  0  0  0  0  0  0  0  0  0
   -6.6273   -6.7396  -28.0709 H   0  0  0  0  0  0  0  0  0  0  0  0
   -6.2828   -5.0003  -27.9871 H   0  0  0  0  0  0  0  0  0  0  0  0
   -8.2638   -4.9447  -26.4055 N   0  0  0  0  0  0  0  0  0  0  0  0
  -11.4663   -6.2179  -28.0183 H   0  0  0  0  0  0  0  0  0  0  0  0
  -11.5436   -5.2790  -25.6951 H   0  0  0  0  0  0  0  0  0  0  0  0
  -10.2491   -3.9740  -24.0791 H   0  0  0  0  0  0  0  0  0  0  0  0
   -7.4694   -4.5882  -23.7935 H   0  0  0  0  0  0  0  0  0  0  0  0
   -7.6144   -3.1332  -24.7338 H   0  0  0  0  0  0  0  0  0  0  0  0
   -8.8893   -3.5911  -21.9878 H   0  0  0  0  0  0  0  0  0  0  0  0
   -6.3230   -2.1853  -22.7790 H   0  0  0  0  0  0  0  0  0  0  0  0
   -6.6622   -3.2119  -21.3805 H   0  0  0  0  0  0  0  0  0  0  0  0
  -10.8097   -1.8815  -22.6704 C   0  0  0  0  0  0  0  0  0  0  0  0
  -11.3700   -2.9251  -21.9133 C   0  0  0  0  0  0  0  0  0  0  0  0
  -12.7348   -2.9454  -21.6475 C   0  0  0  0  0  0  0  0  0  0  0  0
  -13.4445   -4.1944  -20.6643 Cl  0  0  0  0  0  0  0  0  0  0  0  0
  -13.5969   -1.9634  -22.1259 C   0  0  0  0  0  0  0  0  0  0  0  0
  -13.0632   -0.9342  -22.8659 C   0  0  0  0  0  0  0  0  0  0  0  0
  -11.6973   -0.8983  -23.1441 C   0  0  0  0  0  0  0  0  0  0  0  0
  -11.2133    0.2654  -23.9511 C   0  0  0  0  0  0  0  0  0  0  0  0
  -11.8961    1.2687  -24.1204 O   0  0  0  0  0  0  0  0  0  0  0  0
  -13.6880   -0.1238  -23.2266 H   0  0  0  0  0  0  0  0  0  0  0  0
  -14.6573   -2.0196  -21.9036 H   0  0  0  0  0  0  0  0  0  0  0  0
  -10.7616   -3.7173  -21.4904 H   0  0  0  0  0  0  0  0  0  0  0  0
   -8.0389   -0.4588  -24.1407 H   0  0  0  0  0  0  0  0  0  0  0  0
   -9.0209   -1.6082  -25.0326 H   0  0  0  0  0  0  0  0  0  0  0  0
   -8.9337    0.9786  -26.1415 H   0  0  0  0  0  0  0  0  0  0  0  0
  -10.2211    1.9734  -25.3800 H   0  0  0  0  0  0  0  0  0  0  0  0
   -9.6754    2.3885  -22.9127 H   0  0  0  0  0  0  0  0  0  0  0  0
   -7.0312    2.2201  -22.0750 H   0  0  0  0  0  0  0  0  0  0  0  0
   -7.1868    3.8779  -22.6735 H   0  0  0  0  0  0  0  0  0  0  0  0
   -8.2126    3.2857  -21.3305 H   0  0  0  0  0  0  0  0  0  0  0  0
  1  2  1  0
  2  3  1  0
  3  4  2  0
  3  5  1  0
  5  6  1  0
  6  7  1  0
  8  7  1  6
  8  9  1  0
  9 10  2  0
  9 11  1  0
 11 12  1  0
 12 13  2  0
 13 14  1  0
 14 15  2  0
 15 16  1  0
 16 17  2  0
 17 18  1  0
 18 19  2  0
 19 20  1  0
 20 21  2  0
 20 22  1  0
 19 23  1  0
 18 24  1  0
 17 25  1  0
 15 26  1  0
 13 27  1  0
 11 28  1  0
 28 29  1  0
 29 30  1  0
 30 31  1  0
 31 32  1  0
 32 33  2  0
 33 34  1  0
 34 35  2  0
 35 36  1  0
 36 37  1  0
 37 38  1  0
 37 39  1  0
 37 40  1  0
 36 41  2  0
 34 42  1  0
 33 43  1  0
 31 44  1  0
 30 45  1  0
 30 46  1  0
 29 47  1  1
 28 48  1  0
 28 49  1  0
  8 50  1  0
 50 51  2  0
 51 52  1  0
 52 53  1  0
 52 54  2  0
 54 55  1  0
 55 56  2  0
 56 57  1  0
 57 58  2  0
 55 59  1  0
 54 60  1  0
 51 61  1  0
  7 62  1  0
  7 63  1  0
  5 64  1  0
  5 65  1  0
  2 66  1  0
  1 67  1  0
  1 68  1  0
  1 69  1  0
 57  6  1  0
 29  8  1  0
 41 32  1  0
 56 50  1  0
 21 12  1  0
 21 16  1  0
M  END
>  <cnnaffinities>  (14) 
[6.3777]

>  <score>  (14) 
6.3777

>  <index>  (14) 
13

>  <Smiles>  (14) 
C(N(C(=O)C(N1C([C@@]2(C(=O)N(c3c(nc(c4c(c(c(c(c34)[H])[H])[H])[H])[H])[H])C([C@@]2(C(N(c2c(c(nc(C([H])([H])[H])n2)[H])[H])[H])([H])[H])[H])([H])[H])c2c(c(Cl)c(c(c2C1=O)[H])[H])[H])([H])[H])([H])[H])[H])([H])([H])[H]

>  <h>  (14) 
<NA>

>  <Training>  (14) 
True

>  <Success>  (14) 
True

>  <enamine_searched>  (14) 
False

>  <enamine_id>  (14) 
nan

$$$$

     RDKit          3D

 73 78  0  0  0  0  0  0  0  0999 V2000
   -8.0386   -3.7442  -23.9466 C   0  0  0  0  0  0  0  0  0  0  0  0
   -8.3063   -2.8489  -22.7425 C   0  0  1  0  0  0  0  0  0  0  0  0
   -7.0612   -2.6319  -21.8645 C   0  0  0  0  0  0  0  0  0  0  0  0
   -7.3878   -1.4024  -21.1731 N   0  0  0  0  0  0  0  0  0  0  0  0
   -6.6024   -0.8239  -20.1490 C   0  0  0  0  0  0  0  0  0  0  0  0
   -6.9432   -1.0241  -18.8385 C   0  0  0  0  0  0  0  0  0  0  0  0
   -6.2468   -0.5297  -17.7844 N   0  0  0  0  0  0  0  0  0  0  0  0
   -5.1889    0.1972  -18.0555 C   0  0  0  0  0  0  0  0  0  0  0  0
   -4.7401    0.5076  -19.3726 C   0  0  0  0  0  0  0  0  0  0  0  0
   -3.6065    1.3283  -19.6153 C   0  0  0  0  0  0  0  0  0  0  0  0
   -3.2312    1.6332  -20.8948 C   0  0  0  0  0  0  0  0  0  0  0  0
   -3.9646    1.1313  -21.9926 C   0  0  0  0  0  0  0  0  0  0  0  0
   -5.0617    0.3317  -21.7863 C   0  0  0  0  0  0  0  0  0  0  0  0
   -5.4729   -0.0062  -20.4648 C   0  0  0  0  0  0  0  0  0  0  0  0
   -5.6262   -0.0250  -22.6422 H   0  0  0  0  0  0  0  0  0  0  0  0
   -3.6792    1.4084  -23.0047 H   0  0  0  0  0  0  0  0  0  0  0  0
   -2.3788    2.2797  -21.0821 H   0  0  0  0  0  0  0  0  0  0  0  0
   -3.0652    1.7252  -18.7623 H   0  0  0  0  0  0  0  0  0  0  0  0
   -4.6311    0.5922  -17.2065 H   0  0  0  0  0  0  0  0  0  0  0  0
   -7.8254   -1.6158  -18.5994 H   0  0  0  0  0  0  0  0  0  0  0  0
   -8.4072   -0.6757  -21.7532 C   0  0  0  0  0  0  0  0  0  0  0  0
   -8.8400    0.3583  -21.2994 O   0  0  0  0  0  0  0  0  0  0  0  0
   -8.8452   -1.4139  -23.0444 C   0  0  1  0  0  0  0  0  0  0  0  0
   -8.1290   -0.8079  -24.2960 C   0  0  0  0  0  0  0  0  0  0  0  0
   -8.6138    0.5149  -24.6485 N   0  0  0  0  0  0  0  0  0  0  0  0
   -7.7231    1.5369  -25.1926 C   0  0  0  0  0  0  0  0  0  0  0  0
   -7.5668    2.6749  -24.1908 C   0  0  0  0  0  0  0  0  0  0  0  0
   -6.5723    3.7156  -24.6196 N   0  0  0  0  0  4  0  0  0  0  0  0
   -7.0659    4.7649  -25.6115 C   0  0  0  0  0  0  0  0  0  0  0  0
   -7.9766    5.8345  -24.9940 C   0  0  0  0  0  0  0  0  0  0  0  0
   -7.5052    6.3330  -23.7012 N   0  0  0  0  0  0  0  0  0  0  0  0
   -6.8268    7.8324  -23.5222 S   0  0  0  0  0  0  0  0  0  0  0  0
   -6.6933    8.0512  -22.0925 O   0  0  0  0  0  0  0  0  0  0  0  0
   -7.5797    8.7442  -24.3586 O   0  0  0  0  0  0  0  0  0  0  0  0
   -5.1568    7.7587  -24.1597 C   0  0  0  0  0  0  0  0  0  0  0  0
   -5.1780    7.6343  -25.2415 H   0  0  0  0  0  0  0  0  0  0  0  0
   -4.6209    6.9392  -23.6834 H   0  0  0  0  0  0  0  0  0  0  0  0
   -4.6544    8.6946  -23.8990 H   0  0  0  0  0  0  0  0  0  0  0  0
   -7.0720    5.2987  -22.7697 C   0  0  0  0  0  0  0  0  0  0  0  0
   -6.0045    4.4236  -23.4192 C   0  0  0  0  0  0  0  0  0  0  0  0
   -5.1714    5.0340  -23.7649 H   0  0  0  0  0  0  0  0  0  0  0  0
   -5.6192    3.6919  -22.7076 H   0  0  0  0  0  0  0  0  0  0  0  0
   -7.9483    4.6952  -22.5160 H   0  0  0  0  0  0  0  0  0  0  0  0
   -6.7352    5.7750  -21.8530 H   0  0  0  0  0  0  0  0  0  0  0  0
   -8.9753    5.4166  -24.8337 H   0  0  0  0  0  0  0  0  0  0  0  0
   -8.0633    6.6769  -25.6805 H   0  0  0  0  0  0  0  0  0  0  0  0
   -7.5778    4.2598  -26.4323 H   0  0  0  0  0  0  0  0  0  0  0  0
   -6.1745    5.2479  -26.0181 H   0  0  0  0  0  0  0  0  0  0  0  0
   -5.8111    3.2040  -25.0950 H   0  0  0  0  0  0  0  0  0  0  0  0
   -7.2302    2.2527  -23.2348 H   0  0  0  0  0  0  0  0  0  0  0  0
   -8.5311    3.1565  -24.0368 H   0  0  0  0  0  0  0  0  0  0  0  0
   -6.7431    1.1056  -25.4232 H   0  0  0  0  0  0  0  0  0  0  0  0
   -8.1536    1.9100  -26.1242 H   0  0  0  0  0  0  0  0  0  0  0  0
   -9.9532    0.7813  -24.6789 C   0  0  0  0  0  0  0  0  0  0  0  0
  -10.4121    1.7838  -25.2138 O   0  0  0  0  0  0  0  0  0  0  0  0
  -10.8553   -0.2121  -23.9974 C   0  0  0  0  0  0  0  0  0  0  0  0
  -12.2318   -0.0233  -24.1220 C   0  0  0  0  0  0  0  0  0  0  0  0
  -13.1250   -0.8909  -23.5277 C   0  0  0  0  0  0  0  0  0  0  0  0
  -12.6179   -1.9478  -22.7731 C   0  0  0  0  0  0  0  0  0  0  0  0
  -13.7301   -3.0430  -22.0037 Cl  0  0  0  0  0  0  0  0  0  0  0  0
  -11.2570   -2.1440  -22.6206 C   0  0  0  0  0  0  0  0  0  0  0  0
  -10.3439   -1.2833  -23.2471 C   0  0  0  0  0  0  0  0  0  0  0  0
  -10.9349   -2.9704  -21.9948 H   0  0  0  0  0  0  0  0  0  0  0  0
  -14.1970   -0.7542  -23.6302 H   0  0  0  0  0  0  0  0  0  0  0  0
  -12.5826    0.8270  -24.6963 H   0  0  0  0  0  0  0  0  0  0  0  0
   -8.2807   -1.4906  -25.1440 H   0  0  0  0  0  0  0  0  0  0  0  0
   -7.0517   -0.7450  -24.1095 H   0  0  0  0  0  0  0  0  0  0  0  0
   -6.1447   -2.5396  -22.4731 H   0  0  0  0  0  0  0  0  0  0  0  0
   -6.8984   -3.4487  -21.1509 H   0  0  0  0  0  0  0  0  0  0  0  0
   -9.0435   -3.3319  -22.0928 H   0  0  0  0  0  0  0  0  0  0  0  0
   -7.2192   -3.3391  -24.5542 H   0  0  0  0  0  0  0  0  0  0  0  0
   -7.7417   -4.7504  -23.6289 H   0  0  0  0  0  0  0  0  0  0  0  0
   -8.9251   -3.8312  -24.5848 H   0  0  0  0  0  0  0  0  0  0  0  0
  1  2  1  0
  2  3  1  0
  3  4  1  0
  4  5  1  0
  5  6  2  0
  6  7  1  0
  7  8  2  0
  8  9  1  0
  9 10  2  0
 10 11  1  0
 11 12  2  0
 12 13  1  0
 13 14  2  0
 13 15  1  0
 12 16  1  0
 11 17  1  0
 10 18  1  0
  8 19  1  0
  6 20  1  0
  4 21  1  0
 21 22  2  0
 21 23  1  0
 23 24  1  6
 24 25  1  0
 25 26  1  0
 26 27  1  0
 27 28  1  0
 28 29  1  0
 29 30  1  0
 30 31  1  0
 31 32  1  0
 32 33  2  0
 32 34  2  0
 32 35  1  0
 35 36  1  0
 35 37  1  0
 35 38  1  0
 31 39  1  0
 39 40  1  0
 40 41  1  0
 40 42  1  0
 39 43  1  0
 39 44  1  0
 30 45  1  0
 30 46  1  0
 29 47  1  0
 29 48  1  0
 28 49  1  0
 27 50  1  0
 27 51  1  0
 26 52  1  0
 26 53  1  0
 25 54  1  0
 54 55  2  0
 54 56  1  0
 56 57  2  0
 57 58  1  0
 58 59  2  0
 59 60  1  0
 59 61  1  0
 61 62  2  0
 61 63  1  0
 58 64  1  0
 57 65  1  0
 24 66  1  0
 24 67  1  0
  3 68  1  0
  3 69  1  0
  2 70  1  1
  1 71  1  0
  1 72  1  0
  1 73  1  0
 23  2  1  0
 40 28  1  0
 62 56  1  0
 14  5  1  0
 62 23  1  0
 14  9  1  0
M  CHG  1  28   1
M  END
>  <cnnaffinities>  (15) 
[6.63387]

>  <score>  (15) 
6.63387

>  <index>  (15) 
14

>  <Smiles>  (15) 
C([C@]1(C(N(c2c(nc(c3c(c(c(c(c23)[H])[H])[H])[H])[H])[H])C(=O)[C@]21C(N(C(C([N+]1(C(C(N(S(=O)(=O)C([H])([H])[H])C(C1([H])[H])([H])[H])([H])[H])([H])[H])[H])([H])[H])([H])[H])C(=O)c1c(c(c(Cl)c(c21)[H])[H])[H])([H])[H])([H])[H])[H])([H])([H])[H]

>  <h>  (15) 
<NA>

>  <Training>  (15) 
True

>  <Success>  (15) 
True

>  <enamine_searched>  (15) 
False

>  <enamine_id>  (15) 
nan

$$$$

     RDKit          3D

 63 68  0  0  0  0  0  0  0  0999 V2000
   -7.6714    2.9923  -22.4371 C   0  0  0  0  0  0  0  0  0  0  0  0
   -8.5882    2.5223  -23.4500 N   0  0  0  0  0  0  0  0  0  0  0  0
   -8.0931    1.9421  -24.5688 C   0  0  0  0  0  0  0  0  0  0  0  0
   -6.9076    1.9427  -24.8589 O   0  0  0  0  0  0  0  0  0  0  0  0
   -9.1519    1.2131  -25.4016 C   0  0  0  0  0  0  0  0  0  0  0  0
   -9.7503    0.1404  -24.6219 N   0  0  0  0  0  0  0  0  0  0  0  0
   -8.8451   -0.9236  -24.2304 C   0  0  0  0  0  0  0  0  0  0  0  0
   -9.1990   -1.6173  -22.8747 C   0  0  2  0  0  0  0  0  0  0  0  0
   -8.6905   -0.7390  -21.6947 C   0  0  0  0  0  0  0  0  0  0  0  0
   -9.2389    0.2472  -21.2424 O   0  0  0  0  0  0  0  0  0  0  0  0
   -7.4924   -1.2573  -21.2511 N   0  0  0  0  0  0  0  0  0  0  0  0
   -6.7187   -0.6951  -20.1979 C   0  0  0  0  0  0  0  0  0  0  0  0
   -7.0213   -0.9631  -18.8870 C   0  0  0  0  0  0  0  0  0  0  0  0
   -6.2914   -0.5348  -17.8244 N   0  0  0  0  0  0  0  0  0  0  0  0
   -5.2170    0.1741  -18.0728 C   0  0  0  0  0  0  0  0  0  0  0  0
   -4.7748    0.5199  -19.3830 C   0  0  0  0  0  0  0  0  0  0  0  0
   -3.6072    1.2986  -19.6124 C   0  0  0  0  0  0  0  0  0  0  0  0
   -3.2243    1.6175  -20.8867 C   0  0  0  0  0  0  0  0  0  0  0  0
   -3.9889    1.1803  -21.9900 C   0  0  0  0  0  0  0  0  0  0  0  0
   -5.1238    0.4289  -21.7930 C   0  0  0  0  0  0  0  0  0  0  0  0
   -5.5461    0.0750  -20.4832 C   0  0  0  0  0  0  0  0  0  0  0  0
   -5.7449    0.1642  -22.6447 H   0  0  0  0  0  0  0  0  0  0  0  0
   -3.6957    1.4542  -22.9986 H   0  0  0  0  0  0  0  0  0  0  0  0
   -2.3403    2.2249  -21.0608 H   0  0  0  0  0  0  0  0  0  0  0  0
   -3.0299    1.6411  -18.7580 H   0  0  0  0  0  0  0  0  0  0  0  0
   -4.6352    0.5157  -17.2140 H   0  0  0  0  0  0  0  0  0  0  0  0
   -7.8907   -1.5724  -18.6502 H   0  0  0  0  0  0  0  0  0  0  0  0
   -7.0551   -2.4369  -21.9682 C   0  0  0  0  0  0  0  0  0  0  0  0
   -8.3334   -2.8968  -22.6938 C   0  0  2  0  0  0  0  0  0  0  0  0
   -8.0586   -3.6681  -23.9959 C   0  0  0  0  0  0  0  0  0  0  0  0
   -7.4615   -4.9685  -23.7874 N   0  0  0  0  0  0  0  0  0  0  0  0
   -8.0873   -6.1622  -23.6946 C   0  0  0  0  0  0  0  0  0  0  0  0
   -7.1174   -7.0998  -23.4154 C   0  0  0  0  0  0  0  0  0  0  0  0
   -5.9205   -6.3527  -23.3630 C   0  0  0  0  0  0  0  0  0  0  0  0
   -6.1406   -5.0608  -23.5832 N   0  0  0  0  0  0  0  0  0  0  0  0
   -4.9075   -6.6838  -23.1652 H   0  0  0  0  0  0  0  0  0  0  0  0
   -7.2532   -8.1646  -23.2736 H   0  0  0  0  0  0  0  0  0  0  0  0
   -9.1564   -6.2454  -23.8536 H   0  0  0  0  0  0  0  0  0  0  0  0
   -7.3482   -3.1190  -24.6225 H   0  0  0  0  0  0  0  0  0  0  0  0
   -8.9958   -3.8136  -24.5464 H   0  0  0  0  0  0  0  0  0  0  0  0
   -8.8675   -3.5650  -22.0136 H   0  0  0  0  0  0  0  0  0  0  0  0
   -6.2335   -2.2177  -22.6706 H   0  0  0  0  0  0  0  0  0  0  0  0
   -6.6786   -3.1850  -21.2651 H   0  0  0  0  0  0  0  0  0  0  0  0
  -10.7077   -1.8103  -22.7748 C   0  0  0  0  0  0  0  0  0  0  0  0
  -11.2915   -2.7867  -21.9492 C   0  0  0  0  0  0  0  0  0  0  0  0
  -12.6655   -2.8317  -21.7730 C   0  0  0  0  0  0  0  0  0  0  0  0
  -13.3694   -4.0268  -20.7199 Cl  0  0  0  0  0  0  0  0  0  0  0  0
  -13.5171   -1.9237  -22.3986 C   0  0  0  0  0  0  0  0  0  0  0  0
  -12.9541   -0.9479  -23.1931 C   0  0  0  0  0  0  0  0  0  0  0  0
  -11.5723   -0.8865  -23.3816 C   0  0  0  0  0  0  0  0  0  0  0  0
  -11.0450    0.2491  -24.2071 C   0  0  0  0  0  0  0  0  0  0  0  0
  -11.7401    1.2215  -24.4747 O   0  0  0  0  0  0  0  0  0  0  0  0
  -13.5717   -0.1930  -23.6668 H   0  0  0  0  0  0  0  0  0  0  0  0
  -14.5893   -1.9810  -22.2329 H   0  0  0  0  0  0  0  0  0  0  0  0
  -10.6958   -3.5073  -21.4002 H   0  0  0  0  0  0  0  0  0  0  0  0
   -8.7951   -1.6537  -25.0447 H   0  0  0  0  0  0  0  0  0  0  0  0
   -7.8491   -0.4746  -24.1449 H   0  0  0  0  0  0  0  0  0  0  0  0
   -9.9654    1.8776  -25.6913 H   0  0  0  0  0  0  0  0  0  0  0  0
   -8.6729    0.8338  -26.3068 H   0  0  0  0  0  0  0  0  0  0  0  0
   -9.5056    2.2362  -23.1419 H   0  0  0  0  0  0  0  0  0  0  0  0
   -6.9550    2.2128  -22.1585 H   0  0  0  0  0  0  0  0  0  0  0  0
   -8.2335    3.2899  -21.5547 H   0  0  0  0  0  0  0  0  0  0  0  0
   -7.0999    3.8512  -22.7945 H   0  0  0  0  0  0  0  0  0  0  0  0
  1  2  1  0
  2  3  1  0
  3  4  2  0
  3  5  1  0
  5  6  1  0
  6  7  1  0
  8  7  1  6
  8  9  1  0
  9 10  2  0
  9 11  1  0
 11 12  1  0
 12 13  2  0
 13 14  1  0
 14 15  2  0
 15 16  1  0
 16 17  2  0
 17 18  1  0
 18 19  2  0
 19 20  1  0
 20 21  2  0
 20 22  1  0
 19 23  1  0
 18 24  1  0
 17 25  1  0
 15 26  1  0
 13 27  1  0
 11 28  1  0
 28 29  1  0
 29 30  1  0
 30 31  1  0
 31 32  1  0
 32 33  2  0
 33 34  1  0
 34 35  2  0
 34 36  1  0
 33 37  1  0
 32 38  1  0
 30 39  1  0
 30 40  1  0
 29 41  1  1
 28 42  1  0
 28 43  1  0
  8 44  1  0
 44 45  2  0
 45 46  1  0
 46 47  1  0
 46 48  2  0
 48 49  1  0
 49 50  2  0
 50 51  1  0
 51 52  2  0
 49 53  1  0
 48 54  1  0
 45 55  1  0
  7 56  1  0
  7 57  1  0
  5 58  1  0
  5 59  1  0
  2 60  1  0
  1 61  1  0
  1 62  1  0
  1 63  1  0
 51  6  1  0
 29  8  1  0
 35 31  1  0
 50 44  1  0
 21 12  1  0
 21 16  1  0
M  END
>  <cnnaffinities>  (16) 
[6.60702, 6.85808]

>  <score>  (16) 
6.60702

>  <index>  (16) 
15

>  <Smiles>  (16) 
C(N(C(=O)C(N1C([C@@]2(C(=O)N(c3c(nc(c4c(c(c(c(c34)[H])[H])[H])[H])[H])[H])C([C@@]2(C(n2c(c(c(n2)[H])[H])[H])([H])[H])[H])([H])[H])c2c(c(Cl)c(c(c2C1=O)[H])[H])[H])([H])[H])([H])[H])[H])([H])([H])[H]

>  <h>  (16) 
<NA>

>  <Training>  (16) 
True

>  <Success>  (16) 
True

>  <enamine_searched>  (16) 
False

>  <enamine_id>  (16) 
nan

$$$$

     RDKit          3D

 61 66  0  0  0  0  0  0  0  0999 V2000
   -7.7870    3.3086  -22.4624 C   0  0  0  0  0  0  0  0  0  0  0  0
   -8.5595    2.7777  -23.5550 N   0  0  0  0  0  0  0  0  0  0  0  0
   -7.9145    2.0783  -24.5154 C   0  0  0  0  0  0  0  0  0  0  0  0
   -6.6929    2.0246  -24.5851 O   0  0  0  0  0  0  0  0  0  0  0  0
   -8.8302    1.2984  -25.4675 C   0  0  0  0  0  0  0  0  0  0  0  0
   -9.5115    0.2327  -24.7384 N   0  0  0  0  0  0  0  0  0  0  0  0
   -8.6895   -0.8890  -24.3232 C   0  0  0  0  0  0  0  0  0  0  0  0
   -9.1012   -1.5320  -22.9632 C   0  0  2  0  0  0  0  0  0  0  0  0
   -8.5523   -0.6726  -21.7919 C   0  0  0  0  0  0  0  0  0  0  0  0
   -8.9899    0.3934  -21.4179 O   0  0  0  0  0  0  0  0  0  0  0  0
   -7.4717   -1.3221  -21.2293 N   0  0  0  0  0  0  0  0  0  0  0  0
   -6.6805   -0.7536  -20.1903 C   0  0  0  0  0  0  0  0  0  0  0  0
   -6.9867   -1.0002  -18.8770 C   0  0  0  0  0  0  0  0  0  0  0  0
   -6.2743   -0.5406  -17.8140 N   0  0  0  0  0  0  0  0  0  0  0  0
   -5.2097    0.1816  -18.0670 C   0  0  0  0  0  0  0  0  0  0  0  0
   -4.7654    0.5106  -19.3808 C   0  0  0  0  0  0  0  0  0  0  0  0
   -3.6081    1.3041  -19.6145 C   0  0  0  0  0  0  0  0  0  0  0  0
   -3.2317    1.6177  -20.8918 C   0  0  0  0  0  0  0  0  0  0  0  0
   -3.9892    1.1643  -21.9953 C   0  0  0  0  0  0  0  0  0  0  0  0
   -5.1156    0.4047  -21.7942 C   0  0  0  0  0  0  0  0  0  0  0  0
   -5.5254    0.0426  -20.4812 C   0  0  0  0  0  0  0  0  0  0  0  0
   -5.7157    0.0965  -22.6460 H   0  0  0  0  0  0  0  0  0  0  0  0
   -3.6852    1.4233  -23.0056 H   0  0  0  0  0  0  0  0  0  0  0  0
   -2.3581    2.2367  -21.0721 H   0  0  0  0  0  0  0  0  0  0  0  0
   -3.0419    1.6701  -18.7603 H   0  0  0  0  0  0  0  0  0  0  0  0
   -4.6341    0.5487  -17.2133 H   0  0  0  0  0  0  0  0  0  0  0  0
   -7.8607   -1.6002  -18.6343 H   0  0  0  0  0  0  0  0  0  0  0  0
   -7.0855   -2.5305  -21.9245 C   0  0  0  0  0  0  0  0  0  0  0  0
   -8.3407   -2.8704  -22.7415 C   0  0  2  0  0  0  0  0  0  0  0  0
   -8.0115   -3.6662  -24.0070 C   0  0  0  0  0  0  0  0  0  0  0  0
   -7.4713   -4.9772  -23.6990 N   0  0  0  0  0  0  0  0  0  0  0  0
   -6.1779   -5.2422  -23.6547 N   0  0  0  0  0  0  0  0  0  0  0  0
   -6.1874   -6.5231  -23.3207 C   0  0  0  0  0  0  0  0  0  0  0  0
   -7.4371   -7.0083  -23.1657 N   0  0  0  0  0  0  0  0  0  0  0  0
   -8.2364   -6.0077  -23.4145 N   0  0  0  0  0  0  0  0  0  0  0  0
   -5.2880   -7.1050  -23.1853 H   0  0  0  0  0  0  0  0  0  0  0  0
   -7.2600   -3.1533  -24.6065 H   0  0  0  0  0  0  0  0  0  0  0  0
   -8.8966   -3.8045  -24.6302 H   0  0  0  0  0  0  0  0  0  0  0  0
   -8.9686   -3.5120  -22.1235 H   0  0  0  0  0  0  0  0  0  0  0  0
   -6.2044   -2.3777  -22.5721 H   0  0  0  0  0  0  0  0  0  0  0  0
   -6.8354   -3.3203  -21.2109 H   0  0  0  0  0  0  0  0  0  0  0  0
  -10.6185   -1.6099  -22.8677 C   0  0  0  0  0  0  0  0  0  0  0  0
  -11.2589   -2.4943  -21.9878 C   0  0  0  0  0  0  0  0  0  0  0  0
  -12.6405   -2.5020  -21.8850 C   0  0  0  0  0  0  0  0  0  0  0  0
  -13.4100   -3.6274  -20.8060 Cl  0  0  0  0  0  0  0  0  0  0  0  0
  -13.4431   -1.6137  -22.5994 C   0  0  0  0  0  0  0  0  0  0  0  0
  -12.8150   -0.6954  -23.4126 C   0  0  0  0  0  0  0  0  0  0  0  0
  -11.4256   -0.6867  -23.5487 C   0  0  0  0  0  0  0  0  0  0  0  0
  -10.8178    0.4010  -24.3843 C   0  0  0  0  0  0  0  0  0  0  0  0
  -11.4498    1.3988  -24.7092 O   0  0  0  0  0  0  0  0  0  0  0  0
  -13.3896    0.0438  -23.9566 H   0  0  0  0  0  0  0  0  0  0  0  0
  -14.5251   -1.6365  -22.4910 H   0  0  0  0  0  0  0  0  0  0  0  0
  -10.7007   -3.1698  -21.3473 H   0  0  0  0  0  0  0  0  0  0  0  0
   -8.6840   -1.6320  -25.1282 H   0  0  0  0  0  0  0  0  0  0  0  0
   -7.6637   -0.5213  -24.2292 H   0  0  0  0  0  0  0  0  0  0  0  0
   -8.2028    0.8775  -26.2630 H   0  0  0  0  0  0  0  0  0  0  0  0
   -9.6075    1.9417  -25.8960 H   0  0  0  0  0  0  0  0  0  0  0  0
   -9.5317    2.5655  -23.3822 H   0  0  0  0  0  0  0  0  0  0  0  0
   -6.8739    3.7471  -22.8598 H   0  0  0  0  0  0  0  0  0  0  0  0
   -7.4753    2.5238  -21.7669 H   0  0  0  0  0  0  0  0  0  0  0  0
   -8.3843    4.0619  -21.9527 H   0  0  0  0  0  0  0  0  0  0  0  0
  1  2  1  0
  2  3  1  0
  3  4  2  0
  3  5  1  0
  5  6  1  0
  6  7  1  0
  8  7  1  6
  8  9  1  0
  9 10  2  0
  9 11  1  0
 11 12  1  0
 12 13  2  0
 13 14  1  0
 14 15  2  0
 15 16  1  0
 16 17  2  0
 17 18  1  0
 18 19  2  0
 19 20  1  0
 20 21  2  0
 20 22  1  0
 19 23  1  0
 18 24  1  0
 17 25  1  0
 15 26  1  0
 13 27  1  0
 11 28  1  0
 28 29  1  0
 29 30  1  0
 30 31  1  0
 31 32  1  0
 32 33  2  0
 33 34  1  0
 34 35  2  0
 33 36  1  0
 30 37  1  0
 30 38  1  0
 29 39  1  1
 28 40  1  0
 28 41  1  0
  8 42  1  0
 42 43  2  0
 43 44  1  0
 44 45  1  0
 44 46  2  0
 46 47  1  0
 47 48  2  0
 48 49  1  0
 49 50  2  0
 47 51  1  0
 46 52  1  0
 43 53  1  0
  7 54  1  0
  7 55  1  0
  5 56  1  0
  5 57  1  0
  2 58  1  0
  1 59  1  0
  1 60  1  0
  1 61  1  0
 49  6  1  0
 29  8  1  0
 35 31  1  0
 48 42  1  0
 21 12  1  0
 21 16  1  0
M  END
>  <cnnaffinities>  (17) 
[6.6376, 6.52936]

>  <score>  (17) 
6.6376

>  <index>  (17) 
16

>  <Smiles>  (17) 
C(N(C(=O)C(N1C([C@@]2(C(=O)N(c3c(nc(c4c(c(c(c(c34)[H])[H])[H])[H])[H])[H])C([C@@]2(C(n2nc(nn2)[H])([H])[H])[H])([H])[H])c2c(c(Cl)c(c(c2C1=O)[H])[H])[H])([H])[H])([H])[H])[H])([H])([H])[H]

>  <h>  (17) 
<NA>

>  <Training>  (17) 
True

>  <Success>  (17) 
True

>  <enamine_searched>  (17) 
False

>  <enamine_id>  (17) 
nan

$$$$

     RDKit          3D

 38 41  0  0  0  0  0  0  0  0999 V2000
  -10.7331   -4.2797  -22.8280 C   0  0  0  0  0  0  0  0  0  0  0  0
  -10.5420   -3.0406  -23.6944 C   0  0  2  0  0  0  0  0  0  0  0  0
   -9.4150   -3.2961  -24.7065 C   0  0  0  0  0  0  0  0  0  0  0  0
   -8.1065   -3.6408  -23.9741 C   0  0  0  0  0  0  0  0  0  0  0  0
   -7.8888   -2.6767  -22.8927 C   0  0  0  0  0  0  0  0  0  0  0  0
   -6.7614   -2.5203  -22.0106 C   0  0  0  0  0  0  0  0  0  0  0  0
   -5.7179   -3.1277  -21.9310 O   0  0  0  0  0  1  0  0  0  0  0  0
   -7.1487   -1.4363  -21.1767 N   0  0  0  0  0  0  0  0  0  0  0  0
   -6.4276   -0.8359  -20.1314 C   0  0  0  0  0  0  0  0  0  0  0  0
   -6.8395   -1.0100  -18.8413 C   0  0  0  0  0  0  0  0  0  0  0  0
   -6.1912   -0.4938  -17.7716 N   0  0  0  0  0  0  0  0  0  0  0  0
   -5.1236    0.2367  -17.9970 C   0  0  0  0  0  0  0  0  0  0  0  0
   -4.6390    0.5576  -19.3030 C   0  0  0  0  0  0  0  0  0  0  0  0
   -3.5009    1.3757  -19.5472 C   0  0  0  0  0  0  0  0  0  0  0  0
   -3.1460    1.6957  -20.8320 C   0  0  0  0  0  0  0  0  0  0  0  0
   -3.9091    1.2382  -21.9348 C   0  0  0  0  0  0  0  0  0  0  0  0
   -5.0021    0.4371  -21.7287 C   0  0  0  0  0  0  0  0  0  0  0  0
   -5.3487    0.0454  -20.4094 C   0  0  0  0  0  0  0  0  0  0  0  0
   -5.6348    0.1148  -22.5533 H   0  0  0  0  0  0  0  0  0  0  0  0
   -3.6344    1.5255  -22.9468 H   0  0  0  0  0  0  0  0  0  0  0  0
   -2.2768    2.3222  -21.0239 H   0  0  0  0  0  0  0  0  0  0  0  0
   -2.9317    1.7490  -18.6993 H   0  0  0  0  0  0  0  0  0  0  0  0
   -4.5969    0.6243  -17.1212 H   0  0  0  0  0  0  0  0  0  0  0  0
   -7.7371   -1.5898  -18.6364 H   0  0  0  0  0  0  0  0  0  0  0  0
   -8.4321   -1.0038  -21.4677 C   0  0  0  0  0  0  0  0  0  0  0  0
   -9.0681   -0.1394  -20.8977 O   0  0  0  0  0  0  0  0  0  0  0  0
   -8.8432   -1.7900  -22.5096 N   0  0  0  0  0  0  0  0  0  0  0  0
  -10.2415   -1.7866  -22.8936 C   0  0  0  0  0  0  0  0  0  0  0  0
  -10.4585   -0.8807  -23.4696 H   0  0  0  0  0  0  0  0  0  0  0  0
  -10.8399   -1.7477  -21.9797 H   0  0  0  0  0  0  0  0  0  0  0  0
   -7.2575   -3.6587  -24.6664 H   0  0  0  0  0  0  0  0  0  0  0  0
   -8.1398   -4.6573  -23.5530 H   0  0  0  0  0  0  0  0  0  0  0  0
   -9.6813   -4.1292  -25.3669 H   0  0  0  0  0  0  0  0  0  0  0  0
   -9.2490   -2.4024  -25.3229 H   0  0  0  0  0  0  0  0  0  0  0  0
  -11.4883   -2.8295  -24.1901 H   0  0  0  0  0  0  0  0  0  0  0  0
  -10.8392   -5.1487  -23.4871 H   0  0  0  0  0  0  0  0  0  0  0  0
   -9.8650   -4.4390  -22.1824 H   0  0  0  0  0  0  0  0  0  0  0  0
  -11.6066   -4.2157  -22.1727 H   0  0  0  0  0  0  0  0  0  0  0  0
  1  2  1  0
  2  3  1  0
  3  4  1  0
  4  5  1  0
  5  6  2  0
  6  7  1  0
  6  8  1  0
  8  9  1  0
  9 10  2  0
 10 11  1  0
 11 12  2  0
 12 13  1  0
 13 14  2  0
 14 15  1  0
 15 16  2  0
 16 17  1  0
 17 18  2  0
 17 19  1  0
 16 20  1  0
 15 21  1  0
 14 22  1  0
 12 23  1  0
 10 24  1  0
  8 25  1  0
 25 26  2  0
 25 27  1  0
 27 28  1  0
 28 29  1  0
 28 30  1  0
  4 31  1  0
  4 32  1  0
  3 33  1  0
  3 34  1  0
  2 35  1  6
  1 36  1  0
  1 37  1  0
  1 38  1  0
 28  2  1  0
 27  5  1  0
 18  9  1  0
 18 13  1  0
M  CHG  1   7  -1
M  END
>  <cnnaffinities>  (18) 
[5.08142, 5.30369, 5.31222]

>  <score>  (18) 
5.08142

>  <index>  (18) 
17

>  <Smiles>  (18) 
C([C@@]1(C(C(c2c([O-])n(c3c(nc(c4c(c(c(c(c34)[H])[H])[H])[H])[H])[H])c(=O)n2C1([H])[H])([H])[H])([H])[H])[H])([H])([H])[H]

>  <h>  (18) 
<NA>

>  <Training>  (18) 
True

>  <Success>  (18) 
True

>  <enamine_searched>  (18) 
False

>  <enamine_id>  (18) 
nan

$$$$

     RDKit          3D

 56 61  0  0  0  0  0  0  0  0999 V2000
  -10.4338   -0.9640  -23.3849 C   0  0  0  0  0  0  0  0  0  0  0  0
   -9.0127   -1.3468  -22.9814 C   0  0  1  0  0  0  0  0  0  0  0  0
   -8.4176   -0.4389  -21.8910 C   0  0  0  0  0  0  0  0  0  0  0  0
   -7.4368   -1.2914  -21.2435 N   0  0  0  0  0  0  0  0  0  0  0  0
   -6.6120   -0.8376  -20.1890 C   0  0  0  0  0  0  0  0  0  0  0  0
   -6.9222   -1.1108  -18.8796 C   0  0  0  0  0  0  0  0  0  0  0  0
   -6.2506   -0.5940  -17.8184 N   0  0  0  0  0  0  0  0  0  0  0  0
   -5.2214    0.1805  -18.0715 C   0  0  0  0  0  0  0  0  0  0  0  0
   -4.7645    0.5033  -19.3851 C   0  0  0  0  0  0  0  0  0  0  0  0
   -3.6290    1.3243  -19.6214 C   0  0  0  0  0  0  0  0  0  0  0  0
   -3.2297    1.5999  -20.9022 C   0  0  0  0  0  0  0  0  0  0  0  0
   -3.9370    1.0701  -22.0037 C   0  0  0  0  0  0  0  0  0  0  0  0
   -5.0379    0.2721  -21.8021 C   0  0  0  0  0  0  0  0  0  0  0  0
   -5.4780   -0.0186  -20.4822 C   0  0  0  0  0  0  0  0  0  0  0  0
   -5.5790   -0.1470  -22.6430 H   0  0  0  0  0  0  0  0  0  0  0  0
   -3.6135    1.3020  -23.0145 H   0  0  0  0  0  0  0  0  0  0  0  0
   -2.3630    2.2310  -21.0827 H   0  0  0  0  0  0  0  0  0  0  0  0
   -3.0864    1.7169  -18.7677 H   0  0  0  0  0  0  0  0  0  0  0  0
   -4.6915    0.6003  -17.2156 H   0  0  0  0  0  0  0  0  0  0  0  0
   -7.7579   -1.7653  -18.6378 H   0  0  0  0  0  0  0  0  0  0  0  0
   -7.6467   -2.6324  -21.4620 C   0  0  0  0  0  0  0  0  0  0  0  0
   -6.9499   -3.5093  -20.9957 O   0  0  0  0  0  0  0  0  0  0  0  0
   -8.8529   -2.7936  -22.4019 C   0  0  1  0  0  0  0  0  0  0  0  0
  -10.0708   -3.2125  -21.5495 C   0  0  0  0  0  0  0  0  0  0  0  0
  -11.2221   -3.6423  -22.3511 N   0  0  0  0  0  0  0  0  0  0  0  0
  -12.5965   -3.6096  -21.8083 C   0  0  0  0  0  0  0  0  0  0  0  0
  -13.5254   -2.5304  -22.3327 C   0  0  0  0  0  0  0  0  0  0  0  0
  -13.9477   -1.2781  -21.8201 C   0  0  0  0  0  0  0  0  0  0  0  0
  -14.8852   -0.8095  -22.7059 C   0  0  0  0  0  0  0  0  0  0  0  0
  -14.9677   -1.7439  -23.6805 N   0  0  0  0  0  0  0  0  0  0  0  0
  -14.1904   -2.7988  -23.4464 N   0  0  0  0  0  0  0  0  0  0  0  0
  -15.6673   -1.8228  -24.3975 H   0  0  0  0  0  0  0  0  0  0  0  0
  -15.5183    0.0683  -22.7089 H   0  0  0  0  0  0  0  0  0  0  0  0
  -13.6969   -0.8230  -20.8837 H   0  0  0  0  0  0  0  0  0  0  0  0
  -13.0627   -4.5313  -22.1663 H   0  0  0  0  0  0  0  0  0  0  0  0
  -12.5879   -3.6399  -20.7113 H   0  0  0  0  0  0  0  0  0  0  0  0
  -11.0362   -4.4751  -23.4329 C   0  0  0  0  0  0  0  0  0  0  0  0
  -11.9613   -5.0378  -23.9990 O   0  0  0  0  0  0  0  0  0  0  0  0
   -9.6404   -4.6455  -23.9271 C   0  0  0  0  0  0  0  0  0  0  0  0
   -9.4148   -5.6373  -24.8818 C   0  0  0  0  0  0  0  0  0  0  0  0
   -8.1454   -5.8673  -25.3706 C   0  0  0  0  0  0  0  0  0  0  0  0
   -7.1216   -5.0558  -24.8976 C   0  0  0  0  0  0  0  0  0  0  0  0
   -5.8847   -5.2484  -25.3797 F   0  0  0  0  0  0  0  0  0  0  0  0
   -7.3137   -4.0689  -23.9518 C   0  0  0  0  0  0  0  0  0  0  0  0
   -8.5962   -3.8609  -23.4374 C   0  0  0  0  0  0  0  0  0  0  0  0
   -6.4661   -3.4816  -23.6157 H   0  0  0  0  0  0  0  0  0  0  0  0
   -7.9352   -6.6368  -26.1085 H   0  0  0  0  0  0  0  0  0  0  0  0
  -10.2629   -6.2118  -25.2368 H   0  0  0  0  0  0  0  0  0  0  0  0
  -10.3639   -2.3752  -20.9095 H   0  0  0  0  0  0  0  0  0  0  0  0
   -9.7345   -4.0126  -20.8848 H   0  0  0  0  0  0  0  0  0  0  0  0
   -9.1830   -0.1152  -21.1678 H   0  0  0  0  0  0  0  0  0  0  0  0
   -7.9415    0.4639  -22.2866 H   0  0  0  0  0  0  0  0  0  0  0  0
   -8.3570   -1.2961  -23.8614 H   0  0  0  0  0  0  0  0  0  0  0  0
  -11.0919   -0.9486  -22.5100 H   0  0  0  0  0  0  0  0  0  0  0  0
  -10.4747    0.0293  -23.8391 H   0  0  0  0  0  0  0  0  0  0  0  0
  -10.8429   -1.6945  -24.0900 H   0  0  0  0  0  0  0  0  0  0  0  0
  1  2  1  0
  2  3  1  0
  3  4  1  0
  4  5  1  0
  5  6  2  0
  6  7  1  0
  7  8  2  0
  8  9  1  0
  9 10  2  0
 10 11  1  0
 11 12  2  0
 12 13  1  0
 13 14  2  0
 13 15  1  0
 12 16  1  0
 11 17  1  0
 10 18  1  0
  8 19  1  0
  6 20  1  0
  4 21  1  0
 21 22  2  0
 21 23  1  0
 23 24  1  1
 24 25  1  0
 25 26  1  0
 26 27  1  0
 27 28  1  0
 28 29  2  0
 29 30  1  0
 30 31  1  0
 30 32  1  0
 29 33  1  0
 28 34  1  0
 26 35  1  0
 26 36  1  0
 25 37  1  0
 37 38  2  0
 37 39  1  0
 39 40  2  0
 40 41  1  0
 41 42  2  0
 42 43  1  0
 42 44  1  0
 44 45  2  0
 44 46  1  0
 41 47  1  0
 40 48  1  0
 24 49  1  0
 24 50  1  0
  3 51  1  0
  3 52  1  0
  2 53  1  6
  1 54  1  0
  1 55  1  0
  1 56  1  0
 23  2  1  0
 31 27  2  0
 45 39  1  0
 14  5  1  0
 45 23  1  0
 14  9  1  0
M  END
>  <cnnaffinities>  (19) 
[6.51828]

>  <score>  (19) 
6.51828

>  <index>  (19) 
18

>  <Smiles>  (19) 
C([C@]1(C(N(c2c(nc(c3c(c(c(c(c23)[H])[H])[H])[H])[H])[H])C(=O)[C@]21C(N(C(c1c(c(n(n1)[H])[H])[H])([H])[H])C(=O)c1c(c(c(F)c(c21)[H])[H])[H])([H])[H])([H])[H])[H])([H])([H])[H]

>  <h>  (19) 
<NA>

>  <Training>  (19) 
True

>  <Success>  (19) 
True

>  <enamine_searched>  (19) 
False

>  <enamine_id>  (19) 
nan

$$$$

     RDKit          3D

 42 45  0  0  0  0  0  0  0  0999 V2000
   -9.1444   -0.0661  -20.7207 O   0  0  0  0  0  0  0  0  0  0  0  0
   -8.6535   -0.9063  -21.4496 C   0  0  0  0  0  0  0  0  0  0  0  0
   -9.3663   -1.5018  -22.6765 C   0  0  1  0  0  0  0  0  0  0  0  0
  -10.4382   -0.5578  -23.1882 C   0  0  0  0  0  0  0  0  0  0  0  0
  -10.1008    0.7539  -23.5123 C   0  0  0  0  0  0  0  0  0  0  0  0
  -11.0719    1.6269  -23.9683 C   0  0  0  0  0  0  0  0  0  0  0  0
  -12.4002    1.2402  -24.0816 C   0  0  0  0  0  0  0  0  0  0  0  0
  -13.5497    2.5027  -24.3712 Cl  0  0  0  0  0  0  0  0  0  0  0  0
  -12.7278   -0.0992  -23.8608 C   0  0  0  0  0  0  0  0  0  0  0  0
  -14.3293   -0.6939  -24.1139 Cl  0  0  0  0  0  0  0  0  0  0  0  0
  -11.7480   -0.9854  -23.4044 C   0  0  0  0  0  0  0  0  0  0  0  0
  -12.0461   -2.0120  -23.1867 H   0  0  0  0  0  0  0  0  0  0  0  0
  -10.8329    2.6525  -24.2068 H   0  0  0  0  0  0  0  0  0  0  0  0
   -9.0892    1.1218  -23.3396 H   0  0  0  0  0  0  0  0  0  0  0  0
   -8.3344   -1.7869  -23.7758 C   0  0  0  0  0  0  0  0  0  0  0  0
   -7.2408   -2.7554  -23.3379 C   0  0  2  0  0  0  0  0  0  0  0  0
   -7.5383   -4.1073  -23.6557 O   0  0  0  0  0  0  0  0  0  0  0  0
   -8.3982   -4.3167  -23.2680 H   0  0  0  0  0  0  0  0  0  0  0  0
   -6.9333   -2.6360  -21.8355 C   0  0  0  0  0  0  0  0  0  0  0  0
   -7.3736   -1.3766  -21.2537 N   0  0  0  0  0  0  0  0  0  0  0  0
   -6.6071   -0.8082  -20.1918 C   0  0  0  0  0  0  0  0  0  0  0  0
   -6.9121   -1.0497  -18.8766 C   0  0  0  0  0  0  0  0  0  0  0  0
   -6.2070   -0.5564  -17.8258 N   0  0  0  0  0  0  0  0  0  0  0  0
   -5.1686    0.2009  -18.0815 C   0  0  0  0  0  0  0  0  0  0  0  0
   -4.7256    0.5227  -19.3955 C   0  0  0  0  0  0  0  0  0  0  0  0
   -3.5974    1.3527  -19.6371 C   0  0  0  0  0  0  0  0  0  0  0  0
   -3.2123    1.6386  -20.9181 C   0  0  0  0  0  0  0  0  0  0  0  0
   -3.9322    1.1032  -22.0110 C   0  0  0  0  0  0  0  0  0  0  0  0
   -5.0229    0.2994  -21.7996 C   0  0  0  0  0  0  0  0  0  0  0  0
   -5.4543   -0.0057  -20.4838 C   0  0  0  0  0  0  0  0  0  0  0  0
   -5.5913   -0.0911  -22.6364 H   0  0  0  0  0  0  0  0  0  0  0  0
   -3.6309    1.3516  -23.0239 H   0  0  0  0  0  0  0  0  0  0  0  0
   -2.3622    2.2886  -21.1076 H   0  0  0  0  0  0  0  0  0  0  0  0
   -3.0603    1.7630  -18.7863 H   0  0  0  0  0  0  0  0  0  0  0  0
   -4.6225    0.6072  -17.2275 H   0  0  0  0  0  0  0  0  0  0  0  0
   -7.7596   -1.6709  -18.5965 H   0  0  0  0  0  0  0  0  0  0  0  0
   -7.3929   -3.5098  -21.3380 H   0  0  0  0  0  0  0  0  0  0  0  0
   -5.8585   -2.6961  -21.6665 H   0  0  0  0  0  0  0  0  0  0  0  0
   -6.3408   -2.5454  -23.9213 H   0  0  0  0  0  0  0  0  0  0  0  0
   -7.8967   -0.8293  -24.0866 H   0  0  0  0  0  0  0  0  0  0  0  0
   -8.8255   -2.2059  -24.6600 H   0  0  0  0  0  0  0  0  0  0  0  0
   -9.8473   -2.4435  -22.3754 H   0  0  0  0  0  0  0  0  0  0  0  0
  1  2  2  0
  2  3  1  0
  3  4  1  0
  4  5  2  0
  5  6  1  0
  6  7  2  0
  7  8  1  0
  7  9  1  0
  9 10  1  0
  9 11  2  0
 11 12  1  0
  6 13  1  0
  5 14  1  0
  3 15  1  0
 15 16  1  0
 16 17  1  0
 17 18  1  0
 16 19  1  0
 19 20  1  0
 20 21  1  0
 21 22  2  0
 22 23  1  0
 23 24  2  0
 24 25  1  0
 25 26  2  0
 26 27  1  0
 27 28  2  0
 28 29  1  0
 29 30  2  0
 29 31  1  0
 28 32  1  0
 27 33  1  0
 26 34  1  0
 24 35  1  0
 22 36  1  0
 19 37  1  0
 19 38  1  0
 16 39  1  6
 15 40  1  0
 15 41  1  0
  3 42  1  1
 20  2  1  0
 30 21  1  0
 11  4  1  0
 30 25  1  0
M  END
>  <cnnaffinities>  (20) 
[5.75256]

>  <score>  (20) 
5.75256

>  <index>  (20) 
19

>  <Smiles>  (20) 
O=C1[C@@](c2c(c(c(Cl)c(Cl)c2[H])[H])[H])(C([C@](O[H])(C(N1c1c(nc(c2c(c(c(c(c12)[H])[H])[H])[H])[H])[H])([H])[H])[H])([H])[H])[H]

>  <h>  (20) 
<NA>

>  <Training>  (20) 
True

>  <Success>  (20) 
True

>  <enamine_searched>  (20) 
False

>  <enamine_id>  (20) 
nan

$$$$

     RDKit          3D

 66 71  0  0  0  0  0  0  0  0999 V2000
   -7.6991    3.1459  -22.4751 C   0  0  0  0  0  0  0  0  0  0  0  0
   -8.5813    2.6549  -23.5101 N   0  0  0  0  0  0  0  0  0  0  0  0
   -8.0307    2.0009  -24.5579 C   0  0  0  0  0  0  0  0  0  0  0  0
   -6.8260    1.9516  -24.7557 O   0  0  0  0  0  0  0  0  0  0  0  0
   -9.0349    1.2521  -25.4374 C   0  0  0  0  0  0  0  0  0  0  0  0
   -9.6627    0.1879  -24.6672 N   0  0  0  0  0  0  0  0  0  0  0  0
   -8.7797   -0.8890  -24.2657 C   0  0  0  0  0  0  0  0  0  0  0  0
   -9.1595   -1.5886  -22.9226 C   0  0  2  0  0  0  0  0  0  0  0  0
   -8.6536   -0.7440  -21.7194 C   0  0  0  0  0  0  0  0  0  0  0  0
   -9.1898    0.2506  -21.2707 O   0  0  0  0  0  0  0  0  0  0  0  0
   -7.4860   -1.3006  -21.2424 N   0  0  0  0  0  0  0  0  0  0  0  0
   -6.7099   -0.7265  -20.1963 C   0  0  0  0  0  0  0  0  0  0  0  0
   -7.0174   -0.9758  -18.8831 C   0  0  0  0  0  0  0  0  0  0  0  0
   -6.2929   -0.5330  -17.8224 N   0  0  0  0  0  0  0  0  0  0  0  0
   -5.2199    0.1758  -18.0744 C   0  0  0  0  0  0  0  0  0  0  0  0
   -4.7780    0.5126  -19.3859 C   0  0  0  0  0  0  0  0  0  0  0  0
   -3.6131    1.2945  -19.6168 C   0  0  0  0  0  0  0  0  0  0  0  0
   -3.2317    1.6101  -20.8922 C   0  0  0  0  0  0  0  0  0  0  0  0
   -3.9976    1.1716  -21.9953 C   0  0  0  0  0  0  0  0  0  0  0  0
   -5.1354    0.4266  -21.7955 C   0  0  0  0  0  0  0  0  0  0  0  0
   -5.5479    0.0607  -20.4848 C   0  0  0  0  0  0  0  0  0  0  0  0
   -5.7537    0.1507  -22.6457 H   0  0  0  0  0  0  0  0  0  0  0  0
   -3.6941    1.4312  -23.0057 H   0  0  0  0  0  0  0  0  0  0  0  0
   -2.3500    2.2199  -21.0678 H   0  0  0  0  0  0  0  0  0  0  0  0
   -3.0413    1.6455  -18.7616 H   0  0  0  0  0  0  0  0  0  0  0  0
   -4.6396    0.5285  -17.2188 H   0  0  0  0  0  0  0  0  0  0  0  0
   -7.8892   -1.5781  -18.6378 H   0  0  0  0  0  0  0  0  0  0  0  0
   -7.0460   -2.4644  -21.9870 C   0  0  0  0  0  0  0  0  0  0  0  0
   -8.3168   -2.8902  -22.7477 C   0  0  2  0  0  0  0  0  0  0  0  0
   -8.0231   -3.6815  -24.0370 C   0  0  0  0  0  0  0  0  0  0  0  0
   -7.4581   -5.0550  -23.7936 C   0  0  0  0  0  0  0  0  0  0  0  0
   -6.0824   -5.2637  -23.6856 C   0  0  0  0  0  0  0  0  0  0  0  0
   -5.5799   -6.5316  -23.4099 C   0  0  0  0  0  0  0  0  0  0  0  0
   -6.4524   -7.6017  -23.2277 C   0  0  0  0  0  0  0  0  0  0  0  0
   -7.8237   -7.4101  -23.3636 C   0  0  0  0  0  0  0  0  0  0  0  0
   -8.3182   -6.1433  -23.6601 C   0  0  0  0  0  0  0  0  0  0  0  0
   -9.3853   -5.9808  -23.8051 H   0  0  0  0  0  0  0  0  0  0  0  0
   -8.5066   -8.2483  -23.2440 H   0  0  0  0  0  0  0  0  0  0  0  0
   -6.0581   -8.5872  -22.9907 H   0  0  0  0  0  0  0  0  0  0  0  0
   -4.5058   -6.6878  -23.3429 H   0  0  0  0  0  0  0  0  0  0  0  0
   -5.4000   -4.4252  -23.8256 H   0  0  0  0  0  0  0  0  0  0  0  0
   -8.9567   -3.7729  -24.6083 H   0  0  0  0  0  0  0  0  0  0  0  0
   -7.3156   -3.1194  -24.6605 H   0  0  0  0  0  0  0  0  0  0  0  0
   -8.8829   -3.5411  -22.0761 H   0  0  0  0  0  0  0  0  0  0  0  0
   -6.6890   -3.2436  -21.3046 H   0  0  0  0  0  0  0  0  0  0  0  0
   -6.2073   -2.2237  -22.6639 H   0  0  0  0  0  0  0  0  0  0  0  0
  -10.6750   -1.7365  -22.8326 C   0  0  0  0  0  0  0  0  0  0  0  0
  -11.2831   -2.6841  -21.9946 C   0  0  0  0  0  0  0  0  0  0  0  0
  -12.6623   -2.7061  -21.8458 C   0  0  0  0  0  0  0  0  0  0  0  0
  -13.3970   -3.8806  -20.7933 Cl  0  0  0  0  0  0  0  0  0  0  0  0
  -13.4931   -1.7928  -22.4915 C   0  0  0  0  0  0  0  0  0  0  0  0
  -12.9023   -0.8333  -23.2830 C   0  0  0  0  0  0  0  0  0  0  0  0
  -11.5167   -0.7983  -23.4501 C   0  0  0  0  0  0  0  0  0  0  0  0
  -10.9572    0.3266  -24.2667 C   0  0  0  0  0  0  0  0  0  0  0  0
  -11.6236    1.3167  -24.5450 O   0  0  0  0  0  0  0  0  0  0  0  0
  -13.4946   -0.0723  -23.7781 H   0  0  0  0  0  0  0  0  0  0  0  0
  -14.5708   -1.8298  -22.3493 H   0  0  0  0  0  0  0  0  0  0  0  0
  -10.7021   -3.3970  -21.4191 H   0  0  0  0  0  0  0  0  0  0  0  0
   -7.7875   -0.4411  -24.1599 H   0  0  0  0  0  0  0  0  0  0  0  0
   -8.7209   -1.6108  -25.0883 H   0  0  0  0  0  0  0  0  0  0  0  0
   -8.4902    0.8607  -26.3023 H   0  0  0  0  0  0  0  0  0  0  0  0
   -9.8460    1.9049  -25.7651 H   0  0  0  0  0  0  0  0  0  0  0  0
   -9.5040    2.3594  -23.2089 H   0  0  0  0  0  0  0  0  0  0  0  0
   -8.2715    3.7481  -21.7667 H   0  0  0  0  0  0  0  0  0  0  0  0
   -6.9037    3.7416  -22.9367 H   0  0  0  0  0  0  0  0  0  0  0  0
   -7.2246    2.2999  -21.9606 H   0  0  0  0  0  0  0  0  0  0  0  0
  1  2  1  0
  2  3  1  0
  3  4  2  0
  3  5  1  0
  5  6  1  0
  6  7  1  0
  8  7  1  6
  8  9  1  0
  9 10  2  0
  9 11  1  0
 11 12  1  0
 12 13  2  0
 13 14  1  0
 14 15  2  0
 15 16  1  0
 16 17  2  0
 17 18  1  0
 18 19  2  0
 19 20  1  0
 20 21  2  0
 20 22  1  0
 19 23  1  0
 18 24  1  0
 17 25  1  0
 15 26  1  0
 13 27  1  0
 11 28  1  0
 28 29  1  0
 29 30  1  0
 30 31  1  0
 31 32  2  0
 32 33  1  0
 33 34  2  0
 34 35  1  0
 35 36  2  0
 36 37  1  0
 35 38  1  0
 34 39  1  0
 33 40  1  0
 32 41  1  0
 30 42  1  0
 30 43  1  0
 29 44  1  1
 28 45  1  0
 28 46  1  0
  8 47  1  0
 47 48  2  0
 48 49  1  0
 49 50  1  0
 49 51  2  0
 51 52  1  0
 52 53  2  0
 53 54  1  0
 54 55  2  0
 52 56  1  0
 51 57  1  0
 48 58  1  0
  7 59  1  0
  7 60  1  0
  5 61  1  0
  5 62  1  0
  2 63  1  0
  1 64  1  0
  1 65  1  0
  1 66  1  0
 54  6  1  0
 29  8  1  0
 36 31  1  0
 53 47  1  0
 21 12  1  0
 21 16  1  0
M  END
>  <cnnaffinities>  (21) 
[6.52873, 6.53535]

>  <score>  (21) 
6.52873

>  <index>  (21) 
20

>  <Smiles>  (21) 
C(N(C(=O)C(N1C([C@@]2(C(=O)N(c3c(nc(c4c(c(c(c(c34)[H])[H])[H])[H])[H])[H])C([C@@]2(C(c2c(c(c(c(c2[H])[H])[H])[H])[H])([H])[H])[H])([H])[H])c2c(c(Cl)c(c(c2C1=O)[H])[H])[H])([H])[H])([H])[H])[H])([H])([H])[H]

>  <h>  (21) 
<NA>

>  <Training>  (21) 
True

>  <Success>  (21) 
True

>  <enamine_searched>  (21) 
False

>  <enamine_id>  (21) 
nan

$$$$

     RDKit          3D

 63 68  0  0  0  0  0  0  0  0999 V2000
  -10.1956   -2.9823  -22.0661 C   0  0  0  0  0  0  0  0  0  0  0  0
   -9.1286   -2.0382  -22.6335 C   0  0  1  0  0  0  0  0  0  0  0  0
   -8.6688   -1.0367  -21.5603 C   0  0  0  0  0  0  0  0  0  0  0  0
   -7.3483   -1.4886  -21.1868 N   0  0  0  0  0  0  0  0  0  0  0  0
   -6.5787   -0.8636  -20.1858 C   0  0  0  0  0  0  0  0  0  0  0  0
   -6.9308   -1.0455  -18.8761 C   0  0  0  0  0  0  0  0  0  0  0  0
   -6.2558   -0.5351  -17.8199 N   0  0  0  0  0  0  0  0  0  0  0  0
   -5.1997    0.1922  -18.0982 C   0  0  0  0  0  0  0  0  0  0  0  0
   -4.7477    0.4887  -19.4168 C   0  0  0  0  0  0  0  0  0  0  0  0
   -3.6209    1.3215  -19.6381 C   0  0  0  0  0  0  0  0  0  0  0  0
   -3.2349    1.6429  -20.9077 C   0  0  0  0  0  0  0  0  0  0  0  0
   -3.9571    1.1468  -22.0178 C   0  0  0  0  0  0  0  0  0  0  0  0
   -5.0450    0.3304  -21.8378 C   0  0  0  0  0  0  0  0  0  0  0  0
   -5.4611   -0.0334  -20.5176 C   0  0  0  0  0  0  0  0  0  0  0  0
   -5.5936   -0.0269  -22.7116 H   0  0  0  0  0  0  0  0  0  0  0  0
   -3.6501    1.4342  -23.0201 H   0  0  0  0  0  0  0  0  0  0  0  0
   -2.3865    2.3002  -21.0724 H   0  0  0  0  0  0  0  0  0  0  0  0
   -3.0920    1.7064  -18.7706 H   0  0  0  0  0  0  0  0  0  0  0  0
   -4.6468    0.6068  -17.2554 H   0  0  0  0  0  0  0  0  0  0  0  0
   -7.7960   -1.6675  -18.6486 H   0  0  0  0  0  0  0  0  0  0  0  0
   -6.8015   -2.4367  -22.0135 C   0  0  0  0  0  0  0  0  0  0  0  0
   -5.7058   -2.9314  -21.8607 O   0  0  0  0  0  0  0  0  0  0  0  0
   -7.8163   -2.7105  -23.1421 C   0  0  1  0  0  0  0  0  0  0  0  0
   -7.9803   -4.2195  -23.3561 C   0  0  0  0  0  0  0  0  0  0  0  0
   -6.8023   -4.8026  -23.9668 N   0  0  0  0  0  0  0  0  0  0  0  0
   -6.4492   -6.1543  -23.5856 C   0  0  0  0  0  0  0  0  0  0  0  0
   -7.4867   -7.1198  -24.1674 C   0  0  0  0  0  0  0  0  0  0  0  0
   -8.4262   -7.5536  -23.5245 O   0  0  0  0  0  0  0  0  0  0  0  0
   -7.2813   -7.3623  -25.4920 N   0  0  0  0  0  0  0  0  0  0  0  0
   -8.3993   -7.7733  -26.3283 C   0  0  0  0  0  0  0  0  0  0  0  0
   -9.4289   -6.6778  -26.4754 C   0  0  0  0  0  0  0  0  0  0  0  0
   -9.0570   -5.4803  -27.2932 C   0  0  0  0  0  0  0  0  0  0  0  0
  -10.1067   -6.4426  -27.7865 C   0  0  0  0  0  0  0  0  0  0  0  0
  -11.1469   -6.1238  -27.7760 H   0  0  0  0  0  0  0  0  0  0  0  0
   -9.8417   -7.0940  -28.6177 H   0  0  0  0  0  0  0  0  0  0  0  0
   -8.0856   -5.5203  -27.7872 H   0  0  0  0  0  0  0  0  0  0  0  0
   -9.3578   -4.5013  -26.9263 H   0  0  0  0  0  0  0  0  0  0  0  0
  -10.0393   -6.5147  -25.5884 H   0  0  0  0  0  0  0  0  0  0  0  0
   -7.9906   -8.0461  -27.3073 H   0  0  0  0  0  0  0  0  0  0  0  0
   -8.8746   -8.6641  -25.9282 H   0  0  0  0  0  0  0  0  0  0  0  0
   -6.5450   -6.8206  -25.9365 H   0  0  0  0  0  0  0  0  0  0  0  0
   -5.4529   -6.3613  -23.9853 H   0  0  0  0  0  0  0  0  0  0  0  0
   -6.4425   -6.2101  -22.4943 H   0  0  0  0  0  0  0  0  0  0  0  0
   -6.2774   -4.2934  -25.1110 C   0  0  0  0  0  0  0  0  0  0  0  0
   -5.5791   -4.9680  -25.8656 O   0  0  0  0  0  0  0  0  0  0  0  0
   -6.5879   -2.8573  -25.3699 C   0  0  0  0  0  0  0  0  0  0  0  0
   -6.1204   -2.3018  -26.5580 C   0  0  0  0  0  0  0  0  0  0  0  0
   -6.3546   -0.9762  -26.8550 C   0  0  0  0  0  0  0  0  0  0  0  0
   -7.0570   -0.2250  -25.9219 C   0  0  0  0  0  0  0  0  0  0  0  0
   -7.2950    1.0663  -26.2000 F   0  0  0  0  0  0  0  0  0  0  0  0
   -7.5300   -0.7457  -24.7334 C   0  0  0  0  0  0  0  0  0  0  0  0
   -7.3137   -2.0975  -24.4453 C   0  0  0  0  0  0  0  0  0  0  0  0
   -8.0910   -0.0941  -24.0700 H   0  0  0  0  0  0  0  0  0  0  0  0
   -6.0095   -0.5174  -27.7751 H   0  0  0  0  0  0  0  0  0  0  0  0
   -5.5733   -2.9552  -27.2262 H   0  0  0  0  0  0  0  0  0  0  0  0
   -8.1456   -4.7232  -22.4061 H   0  0  0  0  0  0  0  0  0  0  0  0
   -8.8744   -4.3758  -23.9744 H   0  0  0  0  0  0  0  0  0  0  0  0
   -8.6510    0.0010  -21.9221 H   0  0  0  0  0  0  0  0  0  0  0  0
   -9.3289   -1.0582  -20.6980 H   0  0  0  0  0  0  0  0  0  0  0  0
   -9.5949   -1.5184  -23.4754 H   0  0  0  0  0  0  0  0  0  0  0  0
  -10.5758   -3.6668  -22.8282 H   0  0  0  0  0  0  0  0  0  0  0  0
   -9.8102   -3.5742  -21.2304 H   0  0  0  0  0  0  0  0  0  0  0  0
  -11.0454   -2.3987  -21.7016 H   0  0  0  0  0  0  0  0  0  0  0  0
  1  2  1  0
  2  3  1  0
  3  4  1  0
  4  5  1  0
  5  6  2  0
  6  7  1  0
  7  8  2  0
  8  9  1  0
  9 10  2  0
 10 11  1  0
 11 12  2  0
 12 13  1  0
 13 14  2  0
 13 15  1  0
 12 16  1  0
 11 17  1  0
 10 18  1  0
  8 19  1  0
  6 20  1  0
  4 21  1  0
 21 22  2  0
 21 23  1  0
 23 24  1  6
 24 25  1  0
 25 26  1  0
 26 27  1  0
 27 28  2  0
 27 29  1  0
 29 30  1  0
 30 31  1  0
 31 32  1  0
 32 33  1  0
 33 34  1  0
 33 35  1  0
 32 36  1  0
 32 37  1  0
 31 38  1  0
 30 39  1  0
 30 40  1  0
 29 41  1  0
 26 42  1  0
 26 43  1  0
 25 44  1  0
 44 45  2  0
 44 46  1  0
 46 47  2  0
 47 48  1  0
 48 49  2  0
 49 50  1  0
 49 51  1  0
 51 52  2  0
 51 53  1  0
 48 54  1  0
 47 55  1  0
 24 56  1  0
 24 57  1  0
  3 58  1  0
  3 59  1  0
  2 60  1  6
  1 61  1  0
  1 62  1  0
  1 63  1  0
 23  2  1  0
 33 31  1  0
 52 46  1  0
 14  5  1  0
 52 23  1  0
 14  9  1  0
M  END
>  <cnnaffinities>  (22) 
[6.35803, 6.71105]

>  <score>  (22) 
6.35803

>  <index>  (22) 
21

>  <Smiles>  (22) 
C([C@]1(C(N(c2c(nc(c3c(c(c(c(c23)[H])[H])[H])[H])[H])[H])C(=O)[C@]21C(N(C(C(=O)N(C(C1(C(C1([H])[H])([H])[H])[H])([H])[H])[H])([H])[H])C(=O)c1c(c(c(F)c(c21)[H])[H])[H])([H])[H])([H])[H])[H])([H])([H])[H]

>  <h>  (22) 
<NA>

>  <Training>  (22) 
True

>  <Success>  (22) 
True

>  <enamine_searched>  (22) 
False

>  <enamine_id>  (22) 
nan

$$$$

     RDKit          3D

 68 73  0  0  0  0  0  0  0  0999 V2000
   -7.8108    3.2992  -22.4192 C   0  0  0  0  0  0  0  0  0  0  0  0
   -8.6605    2.7845  -23.4771 N   0  0  0  0  0  0  0  0  0  0  0  0
   -8.0839    2.0751  -24.4816 C   0  0  0  0  0  0  0  0  0  0  0  0
   -6.8731    1.9839  -24.6343 O   0  0  0  0  0  0  0  0  0  0  0  0
   -9.0701    1.3422  -25.3880 C   0  0  0  0  0  0  0  0  0  0  0  0
   -9.7067    0.2619  -24.6541 N   0  0  0  0  0  0  0  0  0  0  0  0
   -8.8255   -0.8275  -24.2765 C   0  0  0  0  0  0  0  0  0  0  0  0
   -9.2073   -1.5542  -22.9485 C   0  0  2  0  0  0  0  0  0  0  0  0
   -8.6696   -0.7100  -21.7532 C   0  0  0  0  0  0  0  0  0  0  0  0
   -9.1532    0.3146  -21.3233 O   0  0  0  0  0  0  0  0  0  0  0  0
   -7.5253   -1.3052  -21.2692 N   0  0  0  0  0  0  0  0  0  0  0  0
   -6.7369   -0.7440  -20.2280 C   0  0  0  0  0  0  0  0  0  0  0  0
   -7.0399   -1.0108  -18.9186 C   0  0  0  0  0  0  0  0  0  0  0  0
   -6.3174   -0.5757  -17.8548 N   0  0  0  0  0  0  0  0  0  0  0  0
   -5.2481    0.1427  -18.1042 C   0  0  0  0  0  0  0  0  0  0  0  0
   -4.8069    0.4864  -19.4147 C   0  0  0  0  0  0  0  0  0  0  0  0
   -3.6445    1.2741  -19.6359 C   0  0  0  0  0  0  0  0  0  0  0  0
   -3.2599    1.5988  -20.9090 C   0  0  0  0  0  0  0  0  0  0  0  0
   -4.0211    1.1604  -22.0159 C   0  0  0  0  0  0  0  0  0  0  0  0
   -5.1561    0.4088  -21.8278 C   0  0  0  0  0  0  0  0  0  0  0  0
   -5.5717    0.0379  -20.5172 C   0  0  0  0  0  0  0  0  0  0  0  0
   -5.7604    0.1221  -22.6850 H   0  0  0  0  0  0  0  0  0  0  0  0
   -3.7164    1.4341  -23.0230 H   0  0  0  0  0  0  0  0  0  0  0  0
   -2.3805    2.2144  -21.0762 H   0  0  0  0  0  0  0  0  0  0  0  0
   -3.0802    1.6222  -18.7755 H   0  0  0  0  0  0  0  0  0  0  0  0
   -4.6709    0.4943  -17.2471 H   0  0  0  0  0  0  0  0  0  0  0  0
   -7.9110   -1.6186  -18.6809 H   0  0  0  0  0  0  0  0  0  0  0  0
   -7.1170   -2.4813  -22.0044 C   0  0  0  0  0  0  0  0  0  0  0  0
   -8.3881   -2.8784  -22.7675 C   0  0  2  0  0  0  0  0  0  0  0  0
   -8.0565   -3.6955  -24.0140 C   0  0  0  0  0  0  0  0  0  0  0  0
   -9.2700   -4.2150  -24.6013 N   0  0  0  0  0  0  0  0  0  0  0  0
   -9.2426   -4.7754  -25.8769 C   0  0  0  0  0  0  0  0  0  0  0  0
  -10.4476   -5.1684  -26.4726 C   0  0  0  0  0  0  0  0  0  0  0  0
  -10.4594   -5.7138  -27.7489 C   0  0  0  0  0  0  0  0  0  0  0  0
   -9.2756   -5.8763  -28.4641 C   0  0  0  0  0  0  0  0  0  0  0  0
   -8.0758   -5.5120  -27.8666 C   0  0  0  0  0  0  0  0  0  0  0  0
   -8.0487   -4.9770  -26.5824 C   0  0  0  0  0  0  0  0  0  0  0  0
   -7.0970   -4.7056  -26.1375 H   0  0  0  0  0  0  0  0  0  0  0  0
   -7.1371   -5.6400  -28.4015 H   0  0  0  0  0  0  0  0  0  0  0  0
   -9.2894   -6.2833  -29.4720 H   0  0  0  0  0  0  0  0  0  0  0  0
  -11.4097   -6.0119  -28.1858 H   0  0  0  0  0  0  0  0  0  0  0  0
  -11.3747   -5.0616  -25.9168 H   0  0  0  0  0  0  0  0  0  0  0  0
  -10.0843   -3.6294  -24.4451 H   0  0  0  0  0  0  0  0  0  0  0  0
   -7.4002   -4.5365  -23.7548 H   0  0  0  0  0  0  0  0  0  0  0  0
   -7.4765   -3.0740  -24.7199 H   0  0  0  0  0  0  0  0  0  0  0  0
   -8.9831   -3.5194  -22.1121 H   0  0  0  0  0  0  0  0  0  0  0  0
   -6.7806   -3.2651  -21.3176 H   0  0  0  0  0  0  0  0  0  0  0  0
   -6.2784   -2.2636  -22.6874 H   0  0  0  0  0  0  0  0  0  0  0  0
  -10.7279   -1.6695  -22.8291 C   0  0  0  0  0  0  0  0  0  0  0  0
  -11.3428   -2.6005  -21.9762 C   0  0  0  0  0  0  0  0  0  0  0  0
  -12.7178   -2.5851  -21.7871 C   0  0  0  0  0  0  0  0  0  0  0  0
  -13.4599   -3.7596  -20.7393 Cl  0  0  0  0  0  0  0  0  0  0  0  0
  -13.5353   -1.6402  -22.4021 C   0  0  0  0  0  0  0  0  0  0  0  0
  -12.9406   -0.6911  -23.2059 C   0  0  0  0  0  0  0  0  0  0  0  0
  -11.5588   -0.6990  -23.4138 C   0  0  0  0  0  0  0  0  0  0  0  0
  -10.9955    0.4122  -24.2417 C   0  0  0  0  0  0  0  0  0  0  0  0
  -11.6587    1.4079  -24.5143 O   0  0  0  0  0  0  0  0  0  0  0  0
  -13.5252    0.0960  -23.6722 H   0  0  0  0  0  0  0  0  0  0  0  0
  -14.6076   -1.6443  -22.2265 H   0  0  0  0  0  0  0  0  0  0  0  0
  -10.7700   -3.3285  -21.4154 H   0  0  0  0  0  0  0  0  0  0  0  0
   -7.8341   -0.3794  -24.1582 H   0  0  0  0  0  0  0  0  0  0  0  0
   -8.7595   -1.5218  -25.1238 H   0  0  0  0  0  0  0  0  0  0  0  0
   -8.4898    0.9643  -26.2316 H   0  0  0  0  0  0  0  0  0  0  0  0
   -9.8743    1.9891  -25.7402 H   0  0  0  0  0  0  0  0  0  0  0  0
   -9.6328    2.6337  -23.2386 H   0  0  0  0  0  0  0  0  0  0  0  0
   -7.5022    2.4848  -21.7433 H   0  0  0  0  0  0  0  0  0  0  0  0
   -8.3311    4.0745  -21.8387 H   0  0  0  0  0  0  0  0  0  0  0  0
   -6.9060    3.7287  -22.8711 H   0  0  0  0  0  0  0  0  0  0  0  0
  1  2  1  0
  2  3  1  0
  3  4  2  0
  3  5  1  0
  5  6  1  0
  6  7  1  0
  8  7  1  6
  8  9  1  0
  9 10  2  0
  9 11  1  0
 11 12  1  0
 12 13  2  0
 13 14  1  0
 14 15  2  0
 15 16  1  0
 16 17  2  0
 17 18  1  0
 18 19  2  0
 19 20  1  0
 20 21  2  0
 20 22  1  0
 19 23  1  0
 18 24  1  0
 17 25  1  0
 15 26  1  0
 13 27  1  0
 11 28  1  0
 28 29  1  0
 29 30  1  0
 30 31  1  0
 31 32  1  0
 32 33  2  0
 33 34  1  0
 34 35  2  0
 35 36  1  0
 36 37  2  0
 37 38  1  0
 36 39  1  0
 35 40  1  0
 34 41  1  0
 33 42  1  0
 31 43  1  0
 30 44  1  0
 30 45  1  0
 29 46  1  1
 28 47  1  0
 28 48  1  0
  8 49  1  0
 49 50  2  0
 50 51  1  0
 51 52  1  0
 51 53  2  0
 53 54  1  0
 54 55  2  0
 55 56  1  0
 56 57  2  0
 54 58  1  0
 53 59  1  0
 50 60  1  0
  7 61  1  0
  7 62  1  0
  5 63  1  0
  5 64  1  0
  2 65  1  0
  1 66  1  0
  1 67  1  0
  1 68  1  0
 56  6  1  0
 29  8  1  0
 37 32  1  0
 55 49  1  0
 21 12  1  0
 21 16  1  0
M  END
>  <cnnaffinities>  (23) 
[6.19638]

>  <score>  (23) 
6.19638

>  <index>  (23) 
23

>  <Smiles>  (23) 
C(N(C(=O)C(N1C([C@@]2(C(=O)N(c3c(nc(c4c(c(c(c(c34)[H])[H])[H])[H])[H])[H])C([C@@]2(C(N(c2c(c(c(c(c2[H])[H])[H])[H])[H])[H])([H])[H])[H])([H])[H])c2c(c(Cl)c(c(c2C1=O)[H])[H])[H])([H])[H])([H])[H])[H])([H])([H])[H]

>  <h>  (23) 
<NA>

>  <Training>  (23) 
True

>  <Success>  (23) 
True

>  <enamine_searched>  (23) 
False

>  <enamine_id>  (23) 
nan

$$$$

     RDKit          3D

 65 70  0  0  0  0  0  0  0  0999 V2000
   -5.9686   -7.4038  -25.5306 O   0  0  0  0  0  0  0  0  0  0  0  0
   -5.8838   -7.1236  -24.3412 C   0  0  0  0  0  0  0  0  0  0  0  0
   -7.0500   -6.4704  -23.5777 C   0  0  0  0  0  0  0  0  0  0  0  0
   -7.0753   -5.0008  -23.7821 N   0  0  1  0  0  4  0  0  0  0  0  0
   -7.2471   -4.6968  -25.2574 C   0  0  0  0  0  0  0  0  0  0  0  0
   -7.2032   -3.2199  -25.5253 C   0  0  0  0  0  0  0  0  0  0  0  0
   -6.8423   -2.7310  -26.7801 C   0  0  0  0  0  0  0  0  0  0  0  0
   -6.7826   -1.3681  -27.0352 C   0  0  0  0  0  0  0  0  0  0  0  0
   -7.0919   -0.4847  -26.0059 C   0  0  0  0  0  0  0  0  0  0  0  0
   -6.9787    1.2305  -26.2927 Cl  0  0  0  0  0  0  0  0  0  0  0  0
   -7.4838   -0.9491  -24.7588 C   0  0  0  0  0  0  0  0  0  0  0  0
   -7.5792   -2.3278  -24.5218 C   0  0  0  0  0  0  0  0  0  0  0  0
   -8.0223   -2.8237  -23.1561 C   0  0  2  0  0  0  0  0  0  0  0  0
   -9.2195   -2.0570  -22.5749 C   0  0  0  0  0  0  0  0  0  0  0  0
   -8.6662   -1.1425  -21.4698 C   0  0  0  0  0  0  0  0  0  0  0  0
   -7.2856   -1.5611  -21.2904 N   0  0  0  0  0  0  0  0  0  0  0  0
   -6.5090   -0.9695  -20.2606 C   0  0  0  0  0  0  0  0  0  0  0  0
   -6.9113   -1.1052  -18.9527 C   0  0  0  0  0  0  0  0  0  0  0  0
   -6.2708   -0.5721  -17.8855 N   0  0  0  0  0  0  0  0  0  0  0  0
   -5.2133    0.1625  -18.1316 C   0  0  0  0  0  0  0  0  0  0  0  0
   -4.7308    0.4509  -19.4392 C   0  0  0  0  0  0  0  0  0  0  0  0
   -3.6185    1.3073  -19.6414 C   0  0  0  0  0  0  0  0  0  0  0  0
   -3.2300    1.6445  -20.9080 C   0  0  0  0  0  0  0  0  0  0  0  0
   -3.9322    1.1391  -22.0258 C   0  0  0  0  0  0  0  0  0  0  0  0
   -4.9944    0.2842  -21.8610 C   0  0  0  0  0  0  0  0  0  0  0  0
   -5.4085   -0.0984  -20.5520 C   0  0  0  0  0  0  0  0  0  0  0  0
   -5.5371   -0.0838  -22.7312 H   0  0  0  0  0  0  0  0  0  0  0  0
   -3.6323    1.4432  -23.0242 H   0  0  0  0  0  0  0  0  0  0  0  0
   -2.3939    2.3200  -21.0638 H   0  0  0  0  0  0  0  0  0  0  0  0
   -3.1054    1.7017  -18.7692 H   0  0  0  0  0  0  0  0  0  0  0  0
   -4.6906    0.5877  -17.2755 H   0  0  0  0  0  0  0  0  0  0  0  0
   -7.7992   -1.6914  -18.7179 H   0  0  0  0  0  0  0  0  0  0  0  0
   -6.8918   -2.5470  -22.1593 C   0  0  0  0  0  0  0  0  0  0  0  0
   -5.8432   -3.1712  -22.1776 O   0  0  0  0  0  0  0  0  0  0  0  0
   -9.2131   -1.2946  -20.5454 H   0  0  0  0  0  0  0  0  0  0  0  0
   -8.7237   -0.0726  -21.7165 H   0  0  0  0  0  0  0  0  0  0  0  0
   -9.9351   -2.7604  -22.1362 H   0  0  0  0  0  0  0  0  0  0  0  0
   -9.7664   -1.4870  -23.3312 H   0  0  0  0  0  0  0  0  0  0  0  0
   -8.2220   -4.3436  -23.0931 C   0  0  0  0  0  0  0  0  0  0  0  0
   -8.2551   -4.6515  -22.0454 H   0  0  0  0  0  0  0  0  0  0  0  0
   -9.1623   -4.6485  -23.5663 H   0  0  0  0  0  0  0  0  0  0  0  0
   -7.7093   -0.2218  -23.9809 H   0  0  0  0  0  0  0  0  0  0  0  0
   -6.4958   -0.9916  -28.0133 H   0  0  0  0  0  0  0  0  0  0  0  0
   -6.6101   -3.4269  -27.5831 H   0  0  0  0  0  0  0  0  0  0  0  0
   -6.4985   -5.2428  -25.8258 H   0  0  0  0  0  0  0  0  0  0  0  0
   -8.2275   -5.0990  -25.5540 H   0  0  0  0  0  0  0  0  0  0  0  0
   -6.2046   -4.5515  -23.4010 H   0  0  0  0  0  0  0  0  0  0  0  0
   -7.0131   -6.7032  -22.5088 H   0  0  0  0  0  0  0  0  0  0  0  0
   -7.9798   -6.9060  -23.9682 H   0  0  0  0  0  0  0  0  0  0  0  0
   -4.7499   -7.3463  -23.6267 N   0  0  0  0  0  0  0  0  0  0  0  0
   -3.6568   -8.1184  -24.2033 C   0  0  0  0  0  0  0  0  0  0  0  0
   -2.4100   -7.8845  -23.3740 C   0  0  1  0  0  0  0  0  0  0  0  0
   -1.0887   -8.2278  -24.0934 C   0  0  0  0  0  0  0  0  0  0  0  0
   -0.7153   -6.7397  -24.1157 C   0  0  1  0  0  0  0  0  0  0  0  0
   -0.6427   -6.2291  -25.4018 F   0  0  0  0  0  0  0  0  0  0  0  0
   -2.0250   -6.3880  -23.4059 C   0  0  0  0  0  0  0  0  0  0  0  0
   -1.9711   -5.8503  -22.4565 H   0  0  0  0  0  0  0  0  0  0  0  0
   -2.6675   -5.8244  -24.0911 H   0  0  0  0  0  0  0  0  0  0  0  0
    0.2088   -6.4543  -23.6124 H   0  0  0  0  0  0  0  0  0  0  0  0
   -1.2227   -8.6352  -25.0983 H   0  0  0  0  0  0  0  0  0  0  0  0
   -0.4117   -8.8760  -23.5422 H   0  0  0  0  0  0  0  0  0  0  0  0
   -2.5167   -8.3152  -22.3674 H   0  0  0  0  0  0  0  0  0  0  0  0
   -3.5087   -7.7348  -25.2223 H   0  0  0  0  0  0  0  0  0  0  0  0
   -3.9222   -9.1823  -24.2858 H   0  0  0  0  0  0  0  0  0  0  0  0
   -4.7366   -7.1957  -22.6264 H   0  0  0  0  0  0  0  0  0  0  0  0
  1  2  2  0
  2  3  1  0
  3  4  1  0
  4  5  1  0
  5  6  1  0
  6  7  2  0
  7  8  1  0
  8  9  2  0
  9 10  1  0
  9 11  1  0
 11 12  2  0
 12 13  1  0
 13 14  1  1
 14 15  1  0
 15 16  1  0
 16 17  1  0
 17 18  2  0
 18 19  1  0
 19 20  2  0
 20 21  1  0
 21 22  2  0
 22 23  1  0
 23 24  2  0
 24 25  1  0
 25 26  2  0
 25 27  1  0
 24 28  1  0
 23 29  1  0
 22 30  1  0
 20 31  1  0
 18 32  1  0
 16 33  1  0
 33 34  2  0
 15 35  1  0
 15 36  1  0
 14 37  1  0
 14 38  1  0
 13 39  1  0
 39 40  1  0
 39 41  1  0
 11 42  1  0
  8 43  1  0
  7 44  1  0
  5 45  1  0
  5 46  1  0
  4 47  1  1
  3 48  1  0
  3 49  1  0
  2 50  1  0
 50 51  1  0
 51 52  1  0
 52 53  1  0
 53 54  1  0
 54 55  1  0
 54 56  1  0
 56 57  1  0
 56 58  1  0
 54 59  1  1
 53 60  1  0
 53 61  1  0
 52 62  1  1
 51 63  1  0
 51 64  1  0
 50 65  1  0
 39  4  1  0
 56 52  1  0
 12  6  1  0
 33 13  1  0
 26 17  1  0
 26 21  1  0
M  CHG  1   4   1
M  END
>  <cnnaffinities>  (24) 
[6.14923, 5.62462, 5.68513]

>  <score>  (24) 
6.14923

>  <index>  (24) 
24

>  <Smiles>  (24) 
O=C(C([N@+]1(C(c2c(c(c(Cl)c(c2[C@@]2(C(C(N(c3c(nc(c4c(c(c(c(c34)[H])[H])[H])[H])[H])[H])C2=O)([H])[H])([H])[H])C1([H])[H])[H])[H])[H])([H])[H])[H])([H])[H])N(C([C@]1(C([C@@](F)(C1([H])[H])[H])([H])[H])[H])([H])[H])[H]

>  <h>  (24) 
<NA>

>  <Training>  (24) 
True

>  <Success>  (24) 
True

>  <enamine_searched>  (24) 
False

>  <enamine_id>  (24) 
nan

$$$$

     RDKit          3D

 70 75  0  0  0  0  0  0  0  0999 V2000
   -5.6678   -7.4950  -25.6751 O   0  0  0  0  0  0  0  0  0  0  0  0
   -5.6092   -7.0484  -24.5426 C   0  0  0  0  0  0  0  0  0  0  0  0
   -6.8054   -6.3727  -23.8593 C   0  0  0  0  0  0  0  0  0  0  0  0
   -6.7963   -4.8758  -23.9460 N   0  0  1  0  0  4  0  0  0  0  0  0
   -6.7572   -4.5055  -25.4187 C   0  0  0  0  0  0  0  0  0  0  0  0
   -6.7763   -3.0187  -25.6305 C   0  0  0  0  0  0  0  0  0  0  0  0
   -6.2854   -2.4740  -26.8162 C   0  0  0  0  0  0  0  0  0  0  0  0
   -6.3071   -1.1042  -27.0328 C   0  0  0  0  0  0  0  0  0  0  0  0
   -6.8218   -0.2725  -26.0446 C   0  0  0  0  0  0  0  0  0  0  0  0
   -6.8427    1.4487  -26.2949 Cl  0  0  0  0  0  0  0  0  0  0  0  0
   -7.3091   -0.7986  -24.8593 C   0  0  0  0  0  0  0  0  0  0  0  0
   -7.3035   -2.1790  -24.6531 C   0  0  0  0  0  0  0  0  0  0  0  0
   -7.8148   -2.7089  -23.3322 C   0  0  2  0  0  0  0  0  0  0  0  0
   -6.8128   -2.3831  -22.2311 C   0  0  0  0  0  0  0  0  0  0  0  0
   -5.7178   -2.9231  -22.2150 O   0  0  0  0  0  0  0  0  0  0  0  0
   -7.2696   -1.4843  -21.2912 N   0  0  0  0  0  0  0  0  0  0  0  0
   -6.5338   -0.8874  -20.2371 C   0  0  0  0  0  0  0  0  0  0  0  0
   -6.9101   -1.0696  -18.9278 C   0  0  0  0  0  0  0  0  0  0  0  0
   -6.2438   -0.5638  -17.8580 N   0  0  0  0  0  0  0  0  0  0  0  0
   -5.1896    0.1785  -18.0978 C   0  0  0  0  0  0  0  0  0  0  0  0
   -4.7366    0.5031  -19.4056 C   0  0  0  0  0  0  0  0  0  0  0  0
   -3.6182    1.3483  -19.6262 C   0  0  0  0  0  0  0  0  0  0  0  0
   -3.2447    1.6891  -20.8972 C   0  0  0  0  0  0  0  0  0  0  0  0
   -3.9691    1.2012  -22.0102 C   0  0  0  0  0  0  0  0  0  0  0  0
   -5.0436    0.3689  -21.8300 C   0  0  0  0  0  0  0  0  0  0  0  0
   -5.4374   -0.0177  -20.5165 C   0  0  0  0  0  0  0  0  0  0  0  0
   -5.6122    0.0150  -22.6869 H   0  0  0  0  0  0  0  0  0  0  0  0
   -3.6759    1.4937  -23.0150 H   0  0  0  0  0  0  0  0  0  0  0  0
   -2.3941    2.3444  -21.0670 H   0  0  0  0  0  0  0  0  0  0  0  0
   -3.0790    1.7236  -18.7617 H   0  0  0  0  0  0  0  0  0  0  0  0
   -4.6413    0.5750  -17.2394 H   0  0  0  0  0  0  0  0  0  0  0  0
   -7.7772   -1.6836  -18.6751 H   0  0  0  0  0  0  0  0  0  0  0  0
   -8.2742   -1.3981  -21.2225 H   0  0  0  0  0  0  0  0  0  0  0  0
   -8.0113   -4.2244  -23.3191 C   0  0  0  0  0  0  0  0  0  0  0  0
   -8.9059   -4.5045  -23.8817 H   0  0  0  0  0  0  0  0  0  0  0  0
   -8.1220   -4.5668  -22.2868 H   0  0  0  0  0  0  0  0  0  0  0  0
   -8.7447   -2.1966  -23.0775 H   0  0  0  0  0  0  0  0  0  0  0  0
   -7.6834   -0.1301  -24.0892 H   0  0  0  0  0  0  0  0  0  0  0  0
   -5.9301   -0.6801  -27.9560 H   0  0  0  0  0  0  0  0  0  0  0  0
   -5.8806   -3.1333  -27.5825 H   0  0  0  0  0  0  0  0  0  0  0  0
   -7.6341   -4.9809  -25.8772 H   0  0  0  0  0  0  0  0  0  0  0  0
   -5.8815   -4.9638  -25.8804 H   0  0  0  0  0  0  0  0  0  0  0  0
   -5.9808   -4.4503  -23.4467 H   0  0  0  0  0  0  0  0  0  0  0  0
   -7.6762   -6.7680  -24.3940 H   0  0  0  0  0  0  0  0  0  0  0  0
   -6.8465   -6.7093  -22.8201 H   0  0  0  0  0  0  0  0  0  0  0  0
   -4.4767   -7.1238  -23.7783 N   0  0  0  0  0  0  0  0  0  0  0  0
   -3.2709   -7.7110  -24.2278 C   0  0  0  0  0  0  0  0  0  0  0  0
   -2.0509   -7.0823  -23.9755 C   0  0  0  0  0  0  0  0  0  0  0  0
   -0.8708   -7.6776  -24.3976 C   0  0  0  0  0  0  0  0  0  0  0  0
   -0.9021   -8.8858  -25.0954 C   0  0  0  0  0  0  0  0  0  0  0  0
    0.3090   -9.5138  -25.5024 N   0  0  0  0  0  0  0  0  0  0  0  0
    1.3013   -9.8502  -24.4832 C   0  0  0  0  0  0  0  0  0  0  0  0
    2.6247  -10.2171  -25.1315 C   0  0  0  0  0  0  0  0  0  0  0  0
    2.4002  -11.1772  -26.1362 O   0  0  0  0  0  0  0  0  0  0  0  0
    1.6864  -10.6222  -27.2055 C   0  0  0  0  0  0  0  0  0  0  0  0
    0.3958   -9.9312  -26.8068 C   0  0  0  0  0  0  0  0  0  0  0  0
   -0.4692   -9.7225  -27.6382 O   0  0  0  0  0  0  0  0  0  0  0  0
    2.2847   -9.8720  -27.7442 H   0  0  0  0  0  0  0  0  0  0  0  0
    1.4314  -11.4245  -27.8981 H   0  0  0  0  0  0  0  0  0  0  0  0
    3.1282   -9.3319  -25.5473 H   0  0  0  0  0  0  0  0  0  0  0  0
    3.3015  -10.6738  -24.4040 H   0  0  0  0  0  0  0  0  0  0  0  0
    1.4369   -9.0031  -23.8047 H   0  0  0  0  0  0  0  0  0  0  0  0
    0.9416  -10.6976  -23.8886 H   0  0  0  0  0  0  0  0  0  0  0  0
   -2.1287   -9.4864  -25.3825 C   0  0  0  0  0  0  0  0  0  0  0  0
   -3.3018   -8.9296  -24.9057 C   0  0  0  0  0  0  0  0  0  0  0  0
   -4.2530   -9.4213  -25.0722 H   0  0  0  0  0  0  0  0  0  0  0  0
   -2.1694  -10.4123  -25.9505 H   0  0  0  0  0  0  0  0  0  0  0  0
    0.0820   -7.1883  -24.2059 H   0  0  0  0  0  0  0  0  0  0  0  0
   -2.0206   -6.1496  -23.4151 H   0  0  0  0  0  0  0  0  0  0  0  0
   -4.4371   -6.5549  -22.9469 H   0  0  0  0  0  0  0  0  0  0  0  0
  1  2  2  0
  2  3  1  0
  3  4  1  0
  4  5  1  0
  5  6  1  0
  6  7  2  0
  7  8  1  0
  8  9  2  0
  9 10  1  0
  9 11  1  0
 11 12  2  0
 12 13  1  0
 13 14  1  0
 14 15  2  0
 14 16  1  0
 16 17  1  0
 17 18  2  0
 18 19  1  0
 19 20  2  0
 20 21  1  0
 21 22  2  0
 22 23  1  0
 23 24  2  0
 24 25  1  0
 25 26  2  0
 25 27  1  0
 24 28  1  0
 23 29  1  0
 22 30  1  0
 20 31  1  0
 18 32  1  0
 16 33  1  0
 13 34  1  0
 34 35  1  0
 34 36  1  0
 13 37  1  1
 11 38  1  0
  8 39  1  0
  7 40  1  0
  5 41  1  0
  5 42  1  0
  4 43  1  1
  3 44  1  0
  3 45  1  0
  2 46  1  0
 46 47  1  0
 47 48  2  0
 48 49  1  0
 49 50  2  0
 50 51  1  0
 51 52  1  0
 52 53  1  0
 53 54  1  0
 54 55  1  0
 55 56  1  0
 56 57  2  0
 55 58  1  0
 55 59  1  0
 53 60  1  0
 53 61  1  0
 52 62  1  0
 52 63  1  0
 50 64  1  0
 64 65  2  0
 65 66  1  0
 64 67  1  0
 49 68  1  0
 48 69  1  0
 46 70  1  0
 34  4  1  0
 65 47  1  0
 12  6  1  0
 26 17  1  0
 56 51  1  0
 26 21  1  0
M  CHG  1   4   1
M  END
>  <cnnaffinities>  (25) 
[5.85509]

>  <score>  (25) 
5.85509

>  <index>  (25) 
25

>  <Smiles>  (25) 
O=C(C([N@+]1(C(c2c(c(c(Cl)c(c2[C@](C(=O)N(c2c(nc(c3c(c(c(c(c23)[H])[H])[H])[H])[H])[H])[H])(C1([H])[H])[H])[H])[H])[H])([H])[H])[H])([H])[H])N(c1c(c(c(N2C(C(OC(C2=O)([H])[H])([H])[H])([H])[H])c(c1[H])[H])[H])[H])[H]

>  <h>  (25) 
<NA>

>  <Training>  (25) 
True

>  <Success>  (25) 
True

>  <enamine_searched>  (25) 
False

>  <enamine_id>  (25) 
nan

$$$$

     RDKit          3D

 55 60  0  0  0  0  0  0  0  0999 V2000
  -10.4484   -1.0266  -23.3498 C   0  0  0  0  0  0  0  0  0  0  0  0
   -9.0158   -1.3856  -22.9654 C   0  0  1  0  0  0  0  0  0  0  0  0
   -8.4125   -0.4637  -21.8923 C   0  0  0  0  0  0  0  0  0  0  0  0
   -7.4317   -1.3084  -21.2368 N   0  0  0  0  0  0  0  0  0  0  0  0
   -6.6053   -0.8435  -20.1888 C   0  0  0  0  0  0  0  0  0  0  0  0
   -6.9193   -1.1052  -18.8788 C   0  0  0  0  0  0  0  0  0  0  0  0
   -6.2466   -0.5865  -17.8203 N   0  0  0  0  0  0  0  0  0  0  0  0
   -5.2176    0.1864  -18.0774 C   0  0  0  0  0  0  0  0  0  0  0  0
   -4.7629    0.5053  -19.3913 C   0  0  0  0  0  0  0  0  0  0  0  0
   -3.6255    1.3248  -19.6244 C   0  0  0  0  0  0  0  0  0  0  0  0
   -3.2276    1.6023  -20.9050 C   0  0  0  0  0  0  0  0  0  0  0  0
   -3.9344    1.0709  -22.0078 C   0  0  0  0  0  0  0  0  0  0  0  0
   -5.0346    0.2705  -21.8084 C   0  0  0  0  0  0  0  0  0  0  0  0
   -5.4749   -0.0211  -20.4882 C   0  0  0  0  0  0  0  0  0  0  0  0
   -5.5774   -0.1480  -22.6497 H   0  0  0  0  0  0  0  0  0  0  0  0
   -3.6110    1.3006  -23.0198 H   0  0  0  0  0  0  0  0  0  0  0  0
   -2.3610    2.2338  -21.0869 H   0  0  0  0  0  0  0  0  0  0  0  0
   -3.0842    1.7194  -18.7696 H   0  0  0  0  0  0  0  0  0  0  0  0
   -4.6850    0.6067  -17.2235 H   0  0  0  0  0  0  0  0  0  0  0  0
   -7.7585   -1.7546  -18.6351 H   0  0  0  0  0  0  0  0  0  0  0  0
   -7.6256   -2.6515  -21.4590 C   0  0  0  0  0  0  0  0  0  0  0  0
   -6.9112   -3.5209  -21.0035 O   0  0  0  0  0  0  0  0  0  0  0  0
   -8.8392   -2.8298  -22.3822 C   0  0  1  0  0  0  0  0  0  0  0  0
  -10.0495   -3.2511  -21.5207 C   0  0  0  0  0  0  0  0  0  0  0  0
  -11.1965   -3.6812  -22.3177 N   0  0  0  0  0  0  0  0  0  0  0  0
  -12.5565   -3.6250  -21.7780 C   0  0  0  0  0  0  0  0  0  0  0  0
  -13.4633   -2.5308  -22.2889 C   0  0  0  0  0  0  0  0  0  0  0  0
  -13.9247   -1.2876  -21.8182 C   0  0  0  0  0  0  0  0  0  0  0  0
  -14.8845   -0.8324  -22.6199 N   0  0  0  0  0  0  0  0  0  0  0  0
  -14.9605   -1.7714  -23.5388 N   0  0  0  0  0  0  0  0  0  0  0  0
  -14.1781   -2.8109  -23.3738 N   0  0  0  0  0  0  0  0  0  0  0  0
  -15.6803   -1.7577  -24.2463 H   0  0  0  0  0  0  0  0  0  0  0  0
  -13.6336   -0.7139  -20.9604 H   0  0  0  0  0  0  0  0  0  0  0  0
  -12.5281   -3.6551  -20.6870 H   0  0  0  0  0  0  0  0  0  0  0  0
  -13.0371   -4.5365  -22.1372 H   0  0  0  0  0  0  0  0  0  0  0  0
  -11.0227   -4.4981  -23.4093 C   0  0  0  0  0  0  0  0  0  0  0  0
  -11.9551   -5.0487  -23.9767 O   0  0  0  0  0  0  0  0  0  0  0  0
   -9.6266   -4.6850  -23.8942 C   0  0  0  0  0  0  0  0  0  0  0  0
   -9.4021   -5.6636  -24.8622 C   0  0  0  0  0  0  0  0  0  0  0  0
   -8.1279   -5.8609  -25.3646 C   0  0  0  0  0  0  0  0  0  0  0  0
   -7.0941   -5.0508  -24.9055 C   0  0  0  0  0  0  0  0  0  0  0  0
   -5.8548   -5.2129  -25.4030 F   0  0  0  0  0  0  0  0  0  0  0  0
   -7.2995   -4.0717  -23.9568 C   0  0  0  0  0  0  0  0  0  0  0  0
   -8.5799   -3.8935  -23.4209 C   0  0  0  0  0  0  0  0  0  0  0  0
   -6.4552   -3.4917  -23.6014 H   0  0  0  0  0  0  0  0  0  0  0  0
   -7.9092   -6.6349  -26.0892 H   0  0  0  0  0  0  0  0  0  0  0  0
  -10.2474   -6.2503  -25.2160 H   0  0  0  0  0  0  0  0  0  0  0  0
   -9.7211   -4.0583  -20.8614 H   0  0  0  0  0  0  0  0  0  0  0  0
  -10.3252   -2.4008  -20.8870 H   0  0  0  0  0  0  0  0  0  0  0  0
   -7.9453    0.4332  -22.3097 H   0  0  0  0  0  0  0  0  0  0  0  0
   -9.1742   -0.1190  -21.1773 H   0  0  0  0  0  0  0  0  0  0  0  0
   -8.3728   -1.3397  -23.8548 H   0  0  0  0  0  0  0  0  0  0  0  0
  -10.5252   -0.0469  -23.8246 H   0  0  0  0  0  0  0  0  0  0  0  0
  -10.8549   -1.7775  -24.0332 H   0  0  0  0  0  0  0  0  0  0  0  0
  -11.0877   -1.0029  -22.4624 H   0  0  0  0  0  0  0  0  0  0  0  0
  1  2  1  0
  2  3  1  0
  3  4  1  0
  4  5  1  0
  5  6  2  0
  6  7  1  0
  7  8  2  0
  8  9  1  0
  9 10  2  0
 10 11  1  0
 11 12  2  0
 12 13  1  0
 13 14  2  0
 13 15  1  0
 12 16  1  0
 11 17  1  0
 10 18  1  0
  8 19  1  0
  6 20  1  0
  4 21  1  0
 21 22  2  0
 21 23  1  0
 23 24  1  1
 24 25  1  0
 25 26  1  0
 26 27  1  0
 27 28  1  0
 28 29  2  0
 29 30  1  0
 30 31  1  0
 30 32  1  0
 28 33  1  0
 26 34  1  0
 26 35  1  0
 25 36  1  0
 36 37  2  0
 36 38  1  0
 38 39  2  0
 39 40  1  0
 40 41  2  0
 41 42  1  0
 41 43  1  0
 43 44  2  0
 43 45  1  0
 40 46  1  0
 39 47  1  0
 24 48  1  0
 24 49  1  0
  3 50  1  0
  3 51  1  0
  2 52  1  6
  1 53  1  0
  1 54  1  0
  1 55  1  0
 23  2  1  0
 31 27  2  0
 44 38  1  0
 14  5  1  0
 44 23  1  0
 14  9  1  0
M  END
>  <cnnaffinities>  (26) 
[6.66074]

>  <score>  (26) 
6.66074

>  <index>  (26) 
26

>  <Smiles>  (26) 
C([C@]1(C(N(c2c(nc(c3c(c(c(c(c23)[H])[H])[H])[H])[H])[H])C(=O)[C@]21C(N(C(c1c(nn(n1)[H])[H])([H])[H])C(=O)c1c(c(c(F)c(c21)[H])[H])[H])([H])[H])([H])[H])[H])([H])([H])[H]

>  <h>  (26) 
<NA>

>  <Training>  (26) 
True

>  <Success>  (26) 
True

>  <enamine_searched>  (26) 
False

>  <enamine_id>  (26) 
nan

$$$$

     RDKit          3D

 58 62  0  0  0  0  0  0  0  0999 V2000
   -3.7528   -5.3616  -22.7168 C   0  0  0  0  0  0  0  0  0  0  0  0
   -4.4971   -6.5316  -22.1760 N   0  0  0  0  0  4  0  0  0  0  0  0
   -5.6202   -6.2228  -21.2217 C   0  0  0  0  0  0  0  0  0  0  0  0
   -6.9978   -6.4843  -21.8463 C   0  0  0  0  0  0  0  0  0  0  0  0
   -7.3477   -5.4530  -22.8135 N   0  0  0  0  0  0  0  0  0  0  0  0
   -8.3290   -4.4339  -22.4886 C   0  0  0  0  0  0  0  0  0  0  0  0
   -7.9058   -3.0121  -22.9285 C   0  0  2  0  0  0  0  0  0  0  0  0
   -6.7881   -2.4793  -21.9909 C   0  0  0  0  0  0  0  0  0  0  0  0
   -5.6383   -2.8763  -21.9200 O   0  0  0  0  0  0  0  0  0  0  0  0
   -7.3095   -1.4670  -21.2166 N   0  0  0  0  0  0  0  0  0  0  0  0
   -6.5686   -0.8567  -20.1872 C   0  0  0  0  0  0  0  0  0  0  0  0
   -6.9239   -1.0437  -18.8742 C   0  0  0  0  0  0  0  0  0  0  0  0
   -6.2514   -0.5338  -17.8156 N   0  0  0  0  0  0  0  0  0  0  0  0
   -5.1977    0.1999  -18.0813 C   0  0  0  0  0  0  0  0  0  0  0  0
   -4.7404    0.5005  -19.3971 C   0  0  0  0  0  0  0  0  0  0  0  0
   -3.6114    1.3296  -19.6219 C   0  0  0  0  0  0  0  0  0  0  0  0
   -3.2312    1.6454  -20.8958 C   0  0  0  0  0  0  0  0  0  0  0  0
   -3.9546    1.1509  -22.0029 C   0  0  0  0  0  0  0  0  0  0  0  0
   -5.0396    0.3346  -21.8120 C   0  0  0  0  0  0  0  0  0  0  0  0
   -5.4519   -0.0206  -20.4955 C   0  0  0  0  0  0  0  0  0  0  0  0
   -5.5935   -0.0443  -22.6648 H   0  0  0  0  0  0  0  0  0  0  0  0
   -3.6526    1.4308  -23.0084 H   0  0  0  0  0  0  0  0  0  0  0  0
   -2.3832    2.3017  -21.0667 H   0  0  0  0  0  0  0  0  0  0  0  0
   -3.0721    1.7150  -18.7604 H   0  0  0  0  0  0  0  0  0  0  0  0
   -4.6451    0.6027  -17.2330 H   0  0  0  0  0  0  0  0  0  0  0  0
   -7.7852   -1.6647  -18.6374 H   0  0  0  0  0  0  0  0  0  0  0  0
   -8.7534   -1.3693  -21.3059 C   0  0  0  0  0  0  0  0  0  0  0  0
   -9.0704   -1.9971  -22.6686 C   0  0  2  0  0  0  0  0  0  0  0  0
  -10.4872   -2.5596  -22.7032 C   0  0  0  0  0  0  0  0  0  0  0  0
  -10.6994   -3.0727  -23.6459 H   0  0  0  0  0  0  0  0  0  0  0  0
  -10.6442   -3.2749  -21.8869 H   0  0  0  0  0  0  0  0  0  0  0  0
  -11.2125   -1.7516  -22.5803 H   0  0  0  0  0  0  0  0  0  0  0  0
   -8.9987   -1.2040  -23.4179 H   0  0  0  0  0  0  0  0  0  0  0  0
   -9.2588   -1.9260  -20.5020 H   0  0  0  0  0  0  0  0  0  0  0  0
   -9.0758   -0.3260  -21.2472 H   0  0  0  0  0  0  0  0  0  0  0  0
   -7.3989   -3.0847  -24.3537 C   0  0  0  0  0  0  0  0  0  0  0  0
   -7.3235   -1.9281  -25.1350 C   0  0  0  0  0  0  0  0  0  0  0  0
   -6.8885   -2.0137  -26.4392 C   0  0  0  0  0  0  0  0  0  0  0  0
   -6.8184   -0.8910  -27.1732 F   0  0  0  0  0  0  0  0  0  0  0  0
   -6.5203   -3.2153  -27.0302 C   0  0  0  0  0  0  0  0  0  0  0  0
   -6.5344   -4.3506  -26.2416 C   0  0  0  0  0  0  0  0  0  0  0  0
   -6.9140   -4.2841  -24.8977 C   0  0  0  0  0  0  0  0  0  0  0  0
   -6.7216   -5.4833  -24.0174 C   0  0  0  0  0  0  0  0  0  0  0  0
   -5.9893   -6.4229  -24.3479 O   0  0  0  0  0  0  0  0  0  0  0  0
   -6.2446   -5.3058  -26.6625 H   0  0  0  0  0  0  0  0  0  0  0  0
   -6.2058   -3.2376  -28.0688 H   0  0  0  0  0  0  0  0  0  0  0  0
   -7.5892   -0.9543  -24.7396 H   0  0  0  0  0  0  0  0  0  0  0  0
   -8.4592   -4.4140  -21.4104 H   0  0  0  0  0  0  0  0  0  0  0  0
   -9.2931   -4.6817  -22.9523 H   0  0  0  0  0  0  0  0  0  0  0  0
   -7.7728   -6.5179  -21.0777 H   0  0  0  0  0  0  0  0  0  0  0  0
   -7.0020   -7.4545  -22.3560 H   0  0  0  0  0  0  0  0  0  0  0  0
   -5.5077   -6.8464  -20.3313 H   0  0  0  0  0  0  0  0  0  0  0  0
   -5.5552   -5.1683  -20.9411 H   0  0  0  0  0  0  0  0  0  0  0  0
   -4.9062   -7.0070  -23.0121 H   0  0  0  0  0  0  0  0  0  0  0  0
   -3.8248   -7.1802  -21.7124 H   0  0  0  0  0  0  0  0  0  0  0  0
   -2.8435   -5.7017  -23.2194 H   0  0  0  0  0  0  0  0  0  0  0  0
   -4.3654   -4.8242  -23.4466 H   0  0  0  0  0  0  0  0  0  0  0  0
   -3.4980   -4.6629  -21.9203 H   0  0  0  0  0  0  0  0  0  0  0  0
  1  2  1  0
  2  3  1  0
  3  4  1  0
  4  5  1  0
  5  6  1  0
  7  6  1  1
  7  8  1  0
  8  9  2  0
  8 10  1  0
 10 11  1  0
 11 12  2  0
 12 13  1  0
 13 14  2  0
 14 15  1  0
 15 16  2  0
 16 17  1  0
 17 18  2  0
 18 19  1  0
 19 20  2  0
 19 21  1  0
 18 22  1  0
 17 23  1  0
 16 24  1  0
 14 25  1  0
 12 26  1  0
 10 27  1  0
 27 28  1  0
 28 29  1  0
 29 30  1  0
 29 31  1  0
 29 32  1  0
 28 33  1  6
 27 34  1  0
 27 35  1  0
  7 36  1  0
 36 37  2  0
 37 38  1  0
 38 39  1  0
 38 40  2  0
 40 41  1  0
 41 42  2  0
 42 43  1  0
 43 44  2  0
 41 45  1  0
 40 46  1  0
 37 47  1  0
  6 48  1  0
  6 49  1  0
  4 50  1  0
  4 51  1  0
  3 52  1  0
  3 53  1  0
  2 54  1  0
  2 55  1  0
  1 56  1  0
  1 57  1  0
  1 58  1  0
 43  5  1  0
 28  7  1  0
 42 36  1  0
 20 11  1  0
 20 15  1  0
M  CHG  1   2   1
M  END
>  <cnnaffinities>  (27) 
[5.39866, 6.13164, 6.37881]

>  <score>  (27) 
5.39866

>  <index>  (27) 
27

>  <Smiles>  (27) 
C([N+](C(C(N1C([C@@]2(C(=O)N(c3c(nc(c4c(c(c(c(c34)[H])[H])[H])[H])[H])[H])C([C@@]2(C([H])([H])[H])[H])([H])[H])c2c(c(F)c(c(c2C1=O)[H])[H])[H])([H])[H])([H])[H])([H])[H])([H])[H])([H])([H])[H]

>  <h>  (27) 
<NA>

>  <Training>  (27) 
True

>  <Success>  (27) 
True

>  <enamine_searched>  (27) 
False

>  <enamine_id>  (27) 
nan

$$$$

     RDKit          3D

 64 68  0  0  0  0  0  0  0  0999 V2000
   -7.6814    3.0776  -22.4443 C   0  0  0  0  0  0  0  0  0  0  0  0
   -8.5915    2.5895  -23.4526 N   0  0  0  0  0  0  0  0  0  0  0  0
   -8.0612    1.9635  -24.5324 C   0  0  0  0  0  0  0  0  0  0  0  0
   -6.8625    1.9317  -24.7650 O   0  0  0  0  0  0  0  0  0  0  0  0
   -9.0739    1.2221  -25.4033 C   0  0  0  0  0  0  0  0  0  0  0  0
   -9.6970    0.1347  -24.6578 N   0  0  0  0  0  0  0  0  0  0  0  0
   -8.8131   -0.9450  -24.2560 C   0  0  0  0  0  0  0  0  0  0  0  0
   -9.1818   -1.6288  -22.8984 C   0  0  2  0  0  0  0  0  0  0  0  0
   -8.6747   -0.7651  -21.7097 C   0  0  0  0  0  0  0  0  0  0  0  0
   -9.2187    0.2185  -21.2475 O   0  0  0  0  0  0  0  0  0  0  0  0
   -7.4852   -1.2983  -21.2612 N   0  0  0  0  0  0  0  0  0  0  0  0
   -6.7165   -0.7336  -20.2103 C   0  0  0  0  0  0  0  0  0  0  0  0
   -7.0301   -0.9944  -18.9005 C   0  0  0  0  0  0  0  0  0  0  0  0
   -6.3096   -0.5527  -17.8384 N   0  0  0  0  0  0  0  0  0  0  0  0
   -5.2377    0.1597  -18.0868 C   0  0  0  0  0  0  0  0  0  0  0  0
   -4.7902    0.4991  -19.3968 C   0  0  0  0  0  0  0  0  0  0  0  0
   -3.6268    1.2826  -19.6252 C   0  0  0  0  0  0  0  0  0  0  0  0
   -3.2421    1.6012  -20.8982 C   0  0  0  0  0  0  0  0  0  0  0  0
   -4.0034    1.1634  -22.0043 C   0  0  0  0  0  0  0  0  0  0  0  0
   -5.1371    0.4096  -21.8086 C   0  0  0  0  0  0  0  0  0  0  0  0
   -5.5535    0.0476  -20.4977 C   0  0  0  0  0  0  0  0  0  0  0  0
   -5.7552    0.1395  -22.6608 H   0  0  0  0  0  0  0  0  0  0  0  0
   -3.7052    1.4332  -23.0130 H   0  0  0  0  0  0  0  0  0  0  0  0
   -2.3612    2.2142  -21.0693 H   0  0  0  0  0  0  0  0  0  0  0  0
   -3.0592    1.6320  -18.7677 H   0  0  0  0  0  0  0  0  0  0  0  0
   -4.6636    0.5142  -17.2284 H   0  0  0  0  0  0  0  0  0  0  0  0
   -7.9022   -1.6004  -18.6648 H   0  0  0  0  0  0  0  0  0  0  0  0
   -7.0502   -2.4775  -21.9774 C   0  0  0  0  0  0  0  0  0  0  0  0
   -8.3339   -2.9224  -22.7046 C   0  0  2  0  0  0  0  0  0  0  0  0
   -8.0759   -3.6984  -23.9925 C   0  0  0  0  0  0  0  0  0  0  0  0
   -7.2716   -5.2577  -23.7239 S   0  0  0  0  0  0  0  0  0  0  0  0
   -5.8879   -5.0187  -23.3371 O   0  0  0  0  0  0  0  0  0  0  0  0
   -8.1210   -6.1059  -22.8930 O   0  0  0  0  0  0  0  0  0  0  0  0
   -7.2198   -5.8102  -25.2840 N   0  0  0  0  0  0  0  0  0  0  0  0
   -8.4425   -6.3306  -25.8759 C   0  0  0  0  0  0  0  0  0  0  0  0
   -9.0464   -5.5009  -26.2612 H   0  0  0  0  0  0  0  0  0  0  0  0
   -9.0419   -6.8967  -25.1545 H   0  0  0  0  0  0  0  0  0  0  0  0
   -8.1796   -6.9721  -26.7169 H   0  0  0  0  0  0  0  0  0  0  0  0
   -6.3495   -6.3094  -25.4399 H   0  0  0  0  0  0  0  0  0  0  0  0
   -9.0199   -3.9055  -24.5084 H   0  0  0  0  0  0  0  0  0  0  0  0
   -7.4047   -3.1567  -24.6677 H   0  0  0  0  0  0  0  0  0  0  0  0
   -8.8824   -3.5784  -22.0242 H   0  0  0  0  0  0  0  0  0  0  0  0
   -6.2267   -2.2573  -22.6761 H   0  0  0  0  0  0  0  0  0  0  0  0
   -6.6855   -3.2378  -21.2824 H   0  0  0  0  0  0  0  0  0  0  0  0
  -10.6935   -1.7918  -22.8052 C   0  0  0  0  0  0  0  0  0  0  0  0
  -11.2922   -2.7469  -21.9672 C   0  0  0  0  0  0  0  0  0  0  0  0
  -12.6678   -2.7682  -21.7980 C   0  0  0  0  0  0  0  0  0  0  0  0
  -13.3902   -3.9471  -20.7380 Cl  0  0  0  0  0  0  0  0  0  0  0  0
  -13.5038   -1.8499  -22.4302 C   0  0  0  0  0  0  0  0  0  0  0  0
  -12.9238   -0.8874  -23.2297 C   0  0  0  0  0  0  0  0  0  0  0  0
  -11.5409   -0.8550  -23.4167 C   0  0  0  0  0  0  0  0  0  0  0  0
  -10.9886    0.2727  -24.2372 C   0  0  0  0  0  0  0  0  0  0  0  0
  -11.6564    1.2680  -24.4940 O   0  0  0  0  0  0  0  0  0  0  0  0
  -13.5235   -0.1206  -23.7078 H   0  0  0  0  0  0  0  0  0  0  0  0
  -14.5767   -1.8822  -22.2650 H   0  0  0  0  0  0  0  0  0  0  0  0
  -10.7065   -3.4640  -21.4020 H   0  0  0  0  0  0  0  0  0  0  0  0
   -7.8143   -0.5037  -24.1722 H   0  0  0  0  0  0  0  0  0  0  0  0
   -8.7792   -1.6783  -25.0690 H   0  0  0  0  0  0  0  0  0  0  0  0
   -9.8892    1.8764  -25.7095 H   0  0  0  0  0  0  0  0  0  0  0  0
   -8.5401    0.8563  -26.2865 H   0  0  0  0  0  0  0  0  0  0  0  0
   -9.5076    2.3036  -23.1379 H   0  0  0  0  0  0  0  0  0  0  0  0
   -7.0812    2.2517  -22.0527 H   0  0  0  0  0  0  0  0  0  0  0  0
   -6.9956    3.8169  -22.8669 H   0  0  0  0  0  0  0  0  0  0  0  0
   -8.2485    3.5261  -21.6331 H   0  0  0  0  0  0  0  0  0  0  0  0
  1  2  1  0
  2  3  1  0
  3  4  2  0
  3  5  1  0
  5  6  1  0
  6  7  1  0
  8  7  1  6
  8  9  1  0
  9 10  2  0
  9 11  1  0
 11 12  1  0
 12 13  2  0
 13 14  1  0
 14 15  2  0
 15 16  1  0
 16 17  2  0
 17 18  1  0
 18 19  2  0
 19 20  1  0
 20 21  2  0
 20 22  1  0
 19 23  1  0
 18 24  1  0
 17 25  1  0
 15 26  1  0
 13 27  1  0
 11 28  1  0
 28 29  1  0
 29 30  1  0
 30 31  1  0
 31 32  2  0
 31 33  2  0
 31 34  1  0
 34 35  1  0
 35 36  1  0
 35 37  1  0
 35 38  1  0
 34 39  1  0
 30 40  1  0
 30 41  1  0
 29 42  1  1
 28 43  1  0
 28 44  1  0
  8 45  1  0
 45 46  2  0
 46 47  1  0
 47 48  1  0
 47 49  2  0
 49 50  1  0
 50 51  2  0
 51 52  1  0
 52 53  2  0
 50 54  1  0
 49 55  1  0
 46 56  1  0
  7 57  1  0
  7 58  1  0
  5 59  1  0
  5 60  1  0
  2 61  1  0
  1 62  1  0
  1 63  1  0
  1 64  1  0
 52  6  1  0
 29  8  1  0
 51 45  1  0
 21 12  1  0
 21 16  1  0
M  END
>  <cnnaffinities>  (28) 
[6.43096, 6.68425, 6.71215]

>  <score>  (28) 
6.43096

>  <index>  (28) 
28

>  <Smiles>  (28) 
C(N(C(=O)C(N1C([C@@]2(C(=O)N(c3c(nc(c4c(c(c(c(c34)[H])[H])[H])[H])[H])[H])C([C@@]2(C(S(=O)(=O)N(C([H])([H])[H])[H])([H])[H])[H])([H])[H])c2c(c(Cl)c(c(c2C1=O)[H])[H])[H])([H])[H])([H])[H])[H])([H])([H])[H]

>  <h>  (28) 
<NA>

>  <Training>  (28) 
True

>  <Success>  (28) 
True

>  <enamine_searched>  (28) 
False

>  <enamine_id>  (28) 
nan

$$$$

     RDKit          3D

 55 60  0  0  0  0  0  0  0  0999 V2000
  -10.4477   -1.0236  -23.3521 C   0  0  0  0  0  0  0  0  0  0  0  0
   -9.0157   -1.3836  -22.9663 C   0  0  1  0  0  0  0  0  0  0  0  0
   -8.4129   -0.4624  -21.8923 C   0  0  0  0  0  0  0  0  0  0  0  0
   -7.4321   -1.3072  -21.2371 N   0  0  0  0  0  0  0  0  0  0  0  0
   -6.6058   -0.8428  -20.1887 C   0  0  0  0  0  0  0  0  0  0  0  0
   -6.9197   -1.1054  -18.8789 C   0  0  0  0  0  0  0  0  0  0  0  0
   -6.2468   -0.5869  -17.8201 N   0  0  0  0  0  0  0  0  0  0  0  0
   -5.2179    0.1859  -18.0770 C   0  0  0  0  0  0  0  0  0  0  0  0
   -4.7629    0.5053  -19.3907 C   0  0  0  0  0  0  0  0  0  0  0  0
   -3.6256    1.3249  -19.6246 C   0  0  0  0  0  0  0  0  0  0  0  0
   -3.2278    1.6023  -20.9045 C   0  0  0  0  0  0  0  0  0  0  0  0
   -3.9344    1.0710  -22.0078 C   0  0  0  0  0  0  0  0  0  0  0  0
   -5.0349    0.2706  -21.8079 C   0  0  0  0  0  0  0  0  0  0  0  0
   -5.4751   -0.0209  -20.4881 C   0  0  0  0  0  0  0  0  0  0  0  0
   -5.5777   -0.1479  -22.6494 H   0  0  0  0  0  0  0  0  0  0  0  0
   -3.6111    1.3007  -23.0196 H   0  0  0  0  0  0  0  0  0  0  0  0
   -2.3609    2.2337  -21.0867 H   0  0  0  0  0  0  0  0  0  0  0  0
   -3.0842    1.7193  -18.7694 H   0  0  0  0  0  0  0  0  0  0  0  0
   -4.6853    0.6065  -17.2230 H   0  0  0  0  0  0  0  0  0  0  0  0
   -7.7586   -1.7554  -18.6353 H   0  0  0  0  0  0  0  0  0  0  0  0
   -7.6267   -2.6500  -21.4595 C   0  0  0  0  0  0  0  0  0  0  0  0
   -6.9127   -3.5196  -21.0028 O   0  0  0  0  0  0  0  0  0  0  0  0
   -8.8395   -2.8278  -22.3835 C   0  0  1  0  0  0  0  0  0  0  0  0
  -10.0500   -3.2489  -21.5225 C   0  0  0  0  0  0  0  0  0  0  0  0
  -11.1966   -3.6798  -22.3192 N   0  0  0  0  0  0  0  0  0  0  0  0
  -12.5569   -3.6232  -21.7808 C   0  0  0  0  0  0  0  0  0  0  0  0
  -13.4642   -2.5297  -22.2916 C   0  0  0  0  0  0  0  0  0  0  0  0
  -13.9237   -1.2865  -21.8187 C   0  0  0  0  0  0  0  0  0  0  0  0
  -14.8843   -0.8299  -22.6193 N   0  0  0  0  0  0  0  0  0  0  0  0
  -14.9625   -1.7674  -23.5396 N   0  0  0  0  0  0  0  0  0  0  0  0
  -14.1805   -2.8087  -23.3757 N   0  0  0  0  0  0  0  0  0  0  0  0
  -15.6859   -1.7531  -24.2420 H   0  0  0  0  0  0  0  0  0  0  0  0
  -13.6318   -0.7149  -20.9600 H   0  0  0  0  0  0  0  0  0  0  0  0
  -12.5307   -3.6510  -20.6898 H   0  0  0  0  0  0  0  0  0  0  0  0
  -13.0372   -4.5349  -22.1389 H   0  0  0  0  0  0  0  0  0  0  0  0
  -11.0229   -4.4972  -23.4110 C   0  0  0  0  0  0  0  0  0  0  0  0
  -11.9542   -5.0476  -23.9789 O   0  0  0  0  0  0  0  0  0  0  0  0
   -9.6271   -4.6829  -23.8965 C   0  0  0  0  0  0  0  0  0  0  0  0
   -9.4033   -5.6627  -24.8635 C   0  0  0  0  0  0  0  0  0  0  0  0
   -8.1294   -5.8618  -25.3651 C   0  0  0  0  0  0  0  0  0  0  0  0
   -7.0958   -5.0519  -24.9048 C   0  0  0  0  0  0  0  0  0  0  0  0
   -5.8565   -5.2151  -25.4018 F   0  0  0  0  0  0  0  0  0  0  0  0
   -7.3002   -4.0722  -23.9569 C   0  0  0  0  0  0  0  0  0  0  0  0
   -8.5805   -3.8920  -23.4221 C   0  0  0  0  0  0  0  0  0  0  0  0
   -6.4561   -3.4910  -23.6023 H   0  0  0  0  0  0  0  0  0  0  0  0
   -7.9109   -6.6352  -26.0908 H   0  0  0  0  0  0  0  0  0  0  0  0
  -10.2492   -6.2487  -25.2176 H   0  0  0  0  0  0  0  0  0  0  0  0
   -9.7202   -4.0544  -20.8621 H   0  0  0  0  0  0  0  0  0  0  0  0
  -10.3274   -2.3997  -20.8882 H   0  0  0  0  0  0  0  0  0  0  0  0
   -7.9455    0.4350  -22.3083 H   0  0  0  0  0  0  0  0  0  0  0  0
   -9.1745   -0.1188  -21.1766 H   0  0  0  0  0  0  0  0  0  0  0  0
   -8.3720   -1.3369  -23.8551 H   0  0  0  0  0  0  0  0  0  0  0  0
  -10.5228   -0.0432  -23.8258 H   0  0  0  0  0  0  0  0  0  0  0  0
  -10.8541   -1.7733  -24.0371 H   0  0  0  0  0  0  0  0  0  0  0  0
  -11.0888   -0.9996  -22.4659 H   0  0  0  0  0  0  0  0  0  0  0  0
  1  2  1  0
  2  3  1  0
  3  4  1  0
  4  5  1  0
  5  6  2  0
  6  7  1  0
  7  8  2  0
  8  9  1  0
  9 10  2  0
 10 11  1  0
 11 12  2  0
 12 13  1  0
 13 14  2  0
 13 15  1  0
 12 16  1  0
 11 17  1  0
 10 18  1  0
  8 19  1  0
  6 20  1  0
  4 21  1  0
 21 22  2  0
 21 23  1  0
 23 24  1  1
 24 25  1  0
 25 26  1  0
 26 27  1  0
 27 28  1  0
 28 29  2  0
 29 30  1  0
 30 31  1  0
 30 32  1  0
 28 33  1  0
 26 34  1  0
 26 35  1  0
 25 36  1  0
 36 37  2  0
 36 38  1  0
 38 39  2  0
 39 40  1  0
 40 41  2  0
 41 42  1  0
 41 43  1  0
 43 44  2  0
 43 45  1  0
 40 46  1  0
 39 47  1  0
 24 48  1  0
 24 49  1  0
  3 50  1  0
  3 51  1  0
  2 52  1  6
  1 53  1  0
  1 54  1  0
  1 55  1  0
 23  2  1  0
 31 27  2  0
 44 38  1  0
 14  5  1  0
 44 23  1  0
 14  9  1  0
M  END
>  <cnnaffinities>  (29) 
[6.66156]

>  <score>  (29) 
6.66156

>  <index>  (29) 
29

>  <Smiles>  (29) 
C([C@]1(C(N(c2c(nc(c3c(c(c(c(c23)[H])[H])[H])[H])[H])[H])C(=O)[C@]21C(N(C(c1c(nn(n1)[H])[H])([H])[H])C(=O)c1c(c(c(F)c(c21)[H])[H])[H])([H])[H])([H])[H])[H])([H])([H])[H]

>  <h>  (29) 
<NA>

>  <Training>  (29) 
True

>  <Success>  (29) 
True

>  <enamine_searched>  (29) 
False

>  <enamine_id>  (29) 
nan

$$$$

     RDKit          3D

 58 63  0  0  0  0  0  0  0  0999 V2000
   -7.2788   -3.4061  -23.8947 C   0  0  0  0  0  0  0  0  0  0  0  0
   -8.2470   -2.8900  -22.8190 C   0  0  1  0  0  0  0  0  0  0  0  0
   -7.5405   -2.7785  -21.4480 C   0  0  0  0  0  0  0  0  0  0  0  0
   -7.3631   -1.3610  -21.2393 N   0  0  0  0  0  0  0  0  0  0  0  0
   -6.5896   -0.8156  -20.1872 C   0  0  0  0  0  0  0  0  0  0  0  0
   -6.8991   -1.0598  -18.8733 C   0  0  0  0  0  0  0  0  0  0  0  0
   -6.2126   -0.5531  -17.8180 N   0  0  0  0  0  0  0  0  0  0  0  0
   -5.1735    0.2031  -18.0826 C   0  0  0  0  0  0  0  0  0  0  0  0
   -4.7261    0.5190  -19.3980 C   0  0  0  0  0  0  0  0  0  0  0  0
   -3.5852    1.3357  -19.6338 C   0  0  0  0  0  0  0  0  0  0  0  0
   -3.1740    1.6002  -20.9114 C   0  0  0  0  0  0  0  0  0  0  0  0
   -3.8810    1.0618  -22.0113 C   0  0  0  0  0  0  0  0  0  0  0  0
   -4.9825    0.2711  -21.8089 C   0  0  0  0  0  0  0  0  0  0  0  0
   -5.4456   -0.0098  -20.4911 C   0  0  0  0  0  0  0  0  0  0  0  0
   -5.5317   -0.1338  -22.6531 H   0  0  0  0  0  0  0  0  0  0  0  0
   -3.5587    1.3002  -23.0213 H   0  0  0  0  0  0  0  0  0  0  0  0
   -2.3219    2.2483  -21.0919 H   0  0  0  0  0  0  0  0  0  0  0  0
   -3.0634    1.7553  -18.7776 H   0  0  0  0  0  0  0  0  0  0  0  0
   -4.6294    0.6080  -17.2286 H   0  0  0  0  0  0  0  0  0  0  0  0
   -7.7525   -1.6815  -18.6092 H   0  0  0  0  0  0  0  0  0  0  0  0
   -8.1771   -0.5748  -22.0217 C   0  0  0  0  0  0  0  0  0  0  0  0
   -8.3205    0.6193  -21.8663 O   0  0  0  0  0  0  0  0  0  0  0  0
   -8.8860   -1.4773  -23.0675 C   0  0  1  0  0  0  0  0  0  0  0  0
   -8.6557   -0.9531  -24.5075 C   0  0  0  0  0  0  0  0  0  0  0  0
   -9.3550    0.2926  -24.7685 N   0  0  0  0  0  0  0  0  0  0  0  0
   -8.6886    1.3878  -25.4488 C   0  0  0  0  0  0  0  0  0  0  0  0
   -8.2537    2.4803  -24.5116 C   0  0  0  0  0  0  0  0  0  0  0  0
   -6.9595    2.5499  -24.0884 C   0  0  0  0  0  0  0  0  0  0  0  0
   -6.4922    3.6779  -23.3223 C   0  0  0  0  0  0  0  0  0  0  0  0
   -5.3385    4.0139  -23.1111 O   0  0  0  0  0  0  0  0  0  0  0  0
   -7.5782    4.4419  -22.8351 N   0  0  0  0  0  0  0  0  0  0  0  0
   -8.8395    4.3017  -23.3112 C   0  0  0  0  0  0  0  0  0  0  0  0
   -9.2037    3.4048  -24.1698 N   0  0  0  0  0  0  0  0  0  0  0  0
   -9.5531    5.0233  -22.9346 H   0  0  0  0  0  0  0  0  0  0  0  0
   -7.3657    5.1338  -22.1227 H   0  0  0  0  0  0  0  0  0  0  0  0
   -6.2412    1.7843  -24.3513 H   0  0  0  0  0  0  0  0  0  0  0  0
   -9.3744    1.7925  -26.1974 H   0  0  0  0  0  0  0  0  0  0  0  0
   -7.7926    0.9899  -25.9317 H   0  0  0  0  0  0  0  0  0  0  0  0
  -10.6704    0.4576  -24.4536 C   0  0  0  0  0  0  0  0  0  0  0  0
  -11.3523    1.3580  -24.9224 O   0  0  0  0  0  0  0  0  0  0  0  0
  -11.2186   -0.5210  -23.4734 C   0  0  0  0  0  0  0  0  0  0  0  0
  -12.5819   -0.4350  -23.1977 C   0  0  0  0  0  0  0  0  0  0  0  0
  -13.1434   -1.2729  -22.2590 C   0  0  0  0  0  0  0  0  0  0  0  0
  -12.3269   -2.1919  -21.6152 C   0  0  0  0  0  0  0  0  0  0  0  0
  -12.9073   -3.0010  -20.7126 F   0  0  0  0  0  0  0  0  0  0  0  0
  -10.9644   -2.2544  -21.8277 C   0  0  0  0  0  0  0  0  0  0  0  0
  -10.3943   -1.4404  -22.8132 C   0  0  0  0  0  0  0  0  0  0  0  0
  -10.3606   -2.8838  -21.1843 H   0  0  0  0  0  0  0  0  0  0  0  0
  -14.1811   -1.2025  -21.9650 H   0  0  0  0  0  0  0  0  0  0  0  0
  -13.1570    0.3204  -23.7253 H   0  0  0  0  0  0  0  0  0  0  0  0
   -8.9978   -1.7323  -25.2074 H   0  0  0  0  0  0  0  0  0  0  0  0
   -7.5889   -0.7705  -24.6640 H   0  0  0  0  0  0  0  0  0  0  0  0
   -6.5652   -3.2779  -21.4424 H   0  0  0  0  0  0  0  0  0  0  0  0
   -8.1565   -3.2083  -20.6518 H   0  0  0  0  0  0  0  0  0  0  0  0
   -9.0622   -3.6192  -22.7583 H   0  0  0  0  0  0  0  0  0  0  0  0
   -6.8923   -4.3875  -23.6014 H   0  0  0  0  0  0  0  0  0  0  0  0
   -6.4229   -2.7364  -24.0291 H   0  0  0  0  0  0  0  0  0  0  0  0
   -7.7734   -3.5306  -24.8619 H   0  0  0  0  0  0  0  0  0  0  0  0
  1  2  1  0
  2  3  1  0
  3  4  1  0
  4  5  1  0
  5  6  2  0
  6  7  1  0
  7  8  2  0
  8  9  1  0
  9 10  2  0
 10 11  1  0
 11 12  2  0
 12 13  1  0
 13 14  2  0
 13 15  1  0
 12 16  1  0
 11 17  1  0
 10 18  1  0
  8 19  1  0
  6 20  1  0
  4 21  1  0
 21 22  2  0
 21 23  1  0
 23 24  1  6
 24 25  1  0
 25 26  1  0
 26 27  1  0
 27 28  2  0
 28 29  1  0
 29 30  2  0
 29 31  1  0
 31 32  1  0
 32 33  2  0
 32 34  1  0
 31 35  1  0
 28 36  1  0
 26 37  1  0
 26 38  1  0
 25 39  1  0
 39 40  2  0
 39 41  1  0
 41 42  2  0
 42 43  1  0
 43 44  2  0
 44 45  1  0
 44 46  1  0
 46 47  2  0
 46 48  1  0
 43 49  1  0
 42 50  1  0
 24 51  1  0
 24 52  1  0
  3 53  1  0
  3 54  1  0
  2 55  1  1
  1 56  1  0
  1 57  1  0
  1 58  1  0
 23  2  1  0
 33 27  1  0
 47 41  1  0
 14  5  1  0
 47 23  1  0
 14  9  1  0
M  END
>  <cnnaffinities>  (30) 
[6.09303, 6.25798, 6.19409, 6.61025, 6.26907]

>  <score>  (30) 
6.09303

>  <index>  (30) 
30

>  <Smiles>  (30) 
C([C@]1(C(N(c2c(nc(c3c(c(c(c(c23)[H])[H])[H])[H])[H])[H])C(=O)[C@]21C(N(C(c1c(c(=O)n(c(n1)[H])[H])[H])([H])[H])C(=O)c1c(c(c(F)c(c21)[H])[H])[H])([H])[H])([H])[H])[H])([H])([H])[H]

>  <h>  (30) 
<NA>

>  <Training>  (30) 
True

>  <Success>  (30) 
True

>  <enamine_searched>  (30) 
False

>  <enamine_id>  (30) 
nan

$$$$

     RDKit          3D

 66 71  0  0  0  0  0  0  0  0999 V2000
   -7.6652    3.0675  -22.4726 C   0  0  0  0  0  0  0  0  0  0  0  0
   -8.5447    2.5728  -23.5064 N   0  0  0  0  0  0  0  0  0  0  0  0
   -8.0073    1.9400  -24.5781 C   0  0  0  0  0  0  0  0  0  0  0  0
   -6.8095    1.9264  -24.8181 O   0  0  0  0  0  0  0  0  0  0  0  0
   -9.0403    1.1962  -25.4212 C   0  0  0  0  0  0  0  0  0  0  0  0
   -9.6781    0.1531  -24.6364 N   0  0  0  0  0  0  0  0  0  0  0  0
   -8.8116   -0.9376  -24.2341 C   0  0  0  0  0  0  0  0  0  0  0  0
   -9.2063   -1.5979  -22.8763 C   0  0  2  0  0  0  0  0  0  0  0  0
   -8.6752   -0.7208  -21.7099 C   0  0  0  0  0  0  0  0  0  0  0  0
   -9.2067    0.2739  -21.2512 O   0  0  0  0  0  0  0  0  0  0  0  0
   -7.4736   -1.2465  -21.2854 N   0  0  0  0  0  0  0  0  0  0  0  0
   -6.7138   -0.6930  -20.2196 C   0  0  0  0  0  0  0  0  0  0  0  0
   -7.0316   -0.9621  -18.9122 C   0  0  0  0  0  0  0  0  0  0  0  0
   -6.3091   -0.5361  -17.8438 N   0  0  0  0  0  0  0  0  0  0  0  0
   -5.2311    0.1706  -18.0832 C   0  0  0  0  0  0  0  0  0  0  0  0
   -4.7799    0.5228  -19.3890 C   0  0  0  0  0  0  0  0  0  0  0  0
   -3.6080    1.2960  -19.6144 C   0  0  0  0  0  0  0  0  0  0  0  0
   -3.2242    1.6190  -20.8871 C   0  0  0  0  0  0  0  0  0  0  0  0
   -3.9922    1.1965  -21.9944 C   0  0  0  0  0  0  0  0  0  0  0  0
   -5.1321    0.4529  -21.8022 C   0  0  0  0  0  0  0  0  0  0  0  0
   -5.5476    0.0863  -20.4945 C   0  0  0  0  0  0  0  0  0  0  0  0
   -5.7552    0.1896  -22.6535 H   0  0  0  0  0  0  0  0  0  0  0  0
   -3.6915    1.4677  -23.0012 H   0  0  0  0  0  0  0  0  0  0  0  0
   -2.3328    2.2170  -21.0566 H   0  0  0  0  0  0  0  0  0  0  0  0
   -3.0293    1.6297  -18.7571 H   0  0  0  0  0  0  0  0  0  0  0  0
   -4.6539    0.5047  -17.2183 H   0  0  0  0  0  0  0  0  0  0  0  0
   -7.9069   -1.5656  -18.6825 H   0  0  0  0  0  0  0  0  0  0  0  0
   -7.0760   -2.4600  -21.9816 C   0  0  0  0  0  0  0  0  0  0  0  0
   -8.3900   -2.8981  -22.6501 C   0  0  2  0  0  0  0  0  0  0  0  0
   -8.2366   -3.7987  -23.8846 C   0  0  0  0  0  0  0  0  0  0  0  0
   -7.7753   -5.1296  -23.5669 N   0  0  0  0  0  0  0  0  0  0  0  0
   -6.4816   -5.5353  -23.4668 C   0  0  0  0  0  0  0  0  0  0  0  0
   -5.4117   -4.9400  -24.1669 C   0  0  0  0  0  0  0  0  0  0  0  0
   -4.1795   -5.5474  -24.0272 C   0  0  0  0  0  0  0  0  0  0  0  0
   -3.9712   -6.6032  -23.2326 N   0  0  0  0  0  0  0  0  0  0  0  0
   -5.0462   -7.0667  -22.6119 C   0  0  0  0  0  0  0  0  0  0  0  0
   -6.2905   -6.6143  -22.6882 N   0  0  0  0  0  0  0  0  0  0  0  0
   -4.8979   -7.9380  -21.9742 H   0  0  0  0  0  0  0  0  0  0  0  0
   -3.3081   -5.1878  -24.5775 H   0  0  0  0  0  0  0  0  0  0  0  0
   -5.5475   -4.0791  -24.8129 H   0  0  0  0  0  0  0  0  0  0  0  0
   -8.3933   -5.6696  -22.9819 H   0  0  0  0  0  0  0  0  0  0  0  0
   -7.5517   -3.3429  -24.6057 H   0  0  0  0  0  0  0  0  0  0  0  0
   -9.2130   -3.8792  -24.3825 H   0  0  0  0  0  0  0  0  0  0  0  0
   -8.9325   -3.4704  -21.8934 H   0  0  0  0  0  0  0  0  0  0  0  0
   -6.2786   -2.2742  -22.7202 H   0  0  0  0  0  0  0  0  0  0  0  0
   -6.6887   -3.1950  -21.2679 H   0  0  0  0  0  0  0  0  0  0  0  0
  -10.7191   -1.7527  -22.7902 C   0  0  0  0  0  0  0  0  0  0  0  0
  -11.3372   -2.7115  -21.9666 C   0  0  0  0  0  0  0  0  0  0  0  0
  -12.7149   -2.7388  -21.8261 C   0  0  0  0  0  0  0  0  0  0  0  0
  -13.4532   -3.9236  -20.7814 Cl  0  0  0  0  0  0  0  0  0  0  0  0
  -13.5342   -1.8230  -22.4833 C   0  0  0  0  0  0  0  0  0  0  0  0
  -12.9387   -0.8628  -23.2756 C   0  0  0  0  0  0  0  0  0  0  0  0
  -11.5518   -0.8237  -23.4314 C   0  0  0  0  0  0  0  0  0  0  0  0
  -10.9803    0.2863  -24.2603 C   0  0  0  0  0  0  0  0  0  0  0  0
  -11.6527    1.2717  -24.5582 O   0  0  0  0  0  0  0  0  0  0  0  0
  -13.5348   -0.1051  -23.7748 H   0  0  0  0  0  0  0  0  0  0  0  0
  -14.6104   -1.8653  -22.3454 H   0  0  0  0  0  0  0  0  0  0  0  0
  -10.7673   -3.4375  -21.3983 H   0  0  0  0  0  0  0  0  0  0  0  0
   -7.8014   -0.5208  -24.1466 H   0  0  0  0  0  0  0  0  0  0  0  0
   -8.7867   -1.6789  -25.0414 H   0  0  0  0  0  0  0  0  0  0  0  0
   -9.8344    1.8663  -25.7477 H   0  0  0  0  0  0  0  0  0  0  0  0
   -8.5316    0.7903  -26.2965 H   0  0  0  0  0  0  0  0  0  0  0  0
   -9.4827    2.3243  -23.2336 H   0  0  0  0  0  0  0  0  0  0  0  0
   -7.0883    2.2557  -22.0039 H   0  0  0  0  0  0  0  0  0  0  0  0
   -8.2444    3.5944  -21.7142 H   0  0  0  0  0  0  0  0  0  0  0  0
   -6.9550    3.7772  -22.9000 H   0  0  0  0  0  0  0  0  0  0  0  0
  1  2  1  0
  2  3  1  0
  3  4  2  0
  3  5  1  0
  5  6  1  0
  6  7  1  0
  8  7  1  6
  8  9  1  0
  9 10  2  0
  9 11  1  0
 11 12  1  0
 12 13  2  0
 13 14  1  0
 14 15  2  0
 15 16  1  0
 16 17  2  0
 17 18  1  0
 18 19  2  0
 19 20  1  0
 20 21  2  0
 20 22  1  0
 19 23  1  0
 18 24  1  0
 17 25  1  0
 15 26  1  0
 13 27  1  0
 11 28  1  0
 28 29  1  0
 29 30  1  0
 30 31  1  0
 31 32  1  0
 32 33  2  0
 33 34  1  0
 34 35  2  0
 35 36  1  0
 36 37  2  0
 36 38  1  0
 34 39  1  0
 33 40  1  0
 31 41  1  0
 30 42  1  0
 30 43  1  0
 29 44  1  1
 28 45  1  0
 28 46  1  0
  8 47  1  0
 47 48  2  0
 48 49  1  0
 49 50  1  0
 49 51  2  0
 51 52  1  0
 52 53  2  0
 53 54  1  0
 54 55  2  0
 52 56  1  0
 51 57  1  0
 48 58  1  0
  7 59  1  0
  7 60  1  0
  5 61  1  0
  5 62  1  0
  2 63  1  0
  1 64  1  0
  1 65  1  0
  1 66  1  0
 54  6  1  0
 29  8  1  0
 37 32  1  0
 53 47  1  0
 21 12  1  0
 21 16  1  0
M  END
>  <cnnaffinities>  (31) 
[6.79805, 6.29089]

>  <score>  (31) 
6.79805

>  <index>  (31) 
31

>  <Smiles>  (31) 
C(N(C(=O)C(N1C([C@@]2(C(=O)N(c3c(nc(c4c(c(c(c(c34)[H])[H])[H])[H])[H])[H])C([C@@]2(C(N(c2c(c(nc(n2)[H])[H])[H])[H])([H])[H])[H])([H])[H])c2c(c(Cl)c(c(c2C1=O)[H])[H])[H])([H])[H])([H])[H])[H])([H])([H])[H]

>  <h>  (31) 
<NA>

>  <Training>  (31) 
True

>  <Success>  (31) 
True

>  <enamine_searched>  (31) 
False

>  <enamine_id>  (31) 
nan

$$$$

     RDKit          3D

 57 62  0  0  0  0  0  0  0  0999 V2000
   -8.0934   -4.0068  -23.7961 C   0  0  0  0  0  0  0  0  0  0  0  0
   -8.3140   -3.1865  -22.5191 C   0  0  1  0  0  0  0  0  0  0  0  0
   -7.0203   -2.4900  -22.0487 C   0  0  0  0  0  0  0  0  0  0  0  0
   -7.4944   -1.3548  -21.2721 N   0  0  0  0  0  0  0  0  0  0  0  0
   -6.7272   -0.7930  -20.2108 C   0  0  0  0  0  0  0  0  0  0  0  0
   -7.0617   -1.0136  -18.8929 C   0  0  0  0  0  0  0  0  0  0  0  0
   -6.3389   -0.5662  -17.8332 N   0  0  0  0  0  0  0  0  0  0  0  0
   -5.2574    0.1292  -18.0836 C   0  0  0  0  0  0  0  0  0  0  0  0
   -4.7935    0.4439  -19.3913 C   0  0  0  0  0  0  0  0  0  0  0  0
   -3.6454    1.2549  -19.6145 C   0  0  0  0  0  0  0  0  0  0  0  0
   -3.2375    1.5429  -20.8873 C   0  0  0  0  0  0  0  0  0  0  0  0
   -3.9333    1.0024  -21.9936 C   0  0  0  0  0  0  0  0  0  0  0  0
   -5.0321    0.1988  -21.7994 C   0  0  0  0  0  0  0  0  0  0  0  0
   -5.5233   -0.0623  -20.4925 C   0  0  0  0  0  0  0  0  0  0  0  0
   -5.5533   -0.2136  -22.6589 H   0  0  0  0  0  0  0  0  0  0  0  0
   -3.6081    1.2357  -23.0044 H   0  0  0  0  0  0  0  0  0  0  0  0
   -2.3901    2.2031  -21.0630 H   0  0  0  0  0  0  0  0  0  0  0  0
   -3.1068    1.6460  -18.7546 H   0  0  0  0  0  0  0  0  0  0  0  0
   -4.6831    0.4808  -17.2254 H   0  0  0  0  0  0  0  0  0  0  0  0
   -7.9454   -1.5954  -18.6426 H   0  0  0  0  0  0  0  0  0  0  0  0
   -8.8239   -1.0503  -21.5229 C   0  0  0  0  0  0  0  0  0  0  0  0
   -9.4412   -0.1513  -20.9898 O   0  0  0  0  0  0  0  0  0  0  0  0
   -9.3729   -2.0409  -22.6095 C   0  0  1  0  0  0  0  0  0  0  0  0
   -9.3163   -1.3918  -24.0224 C   0  0  0  0  0  0  0  0  0  0  0  0
  -10.3657   -0.4101  -24.2747 N   0  0  0  0  0  0  0  0  0  0  0  0
   -9.9647    0.8230  -24.9492 C   0  0  0  0  0  0  0  0  0  0  0  0
   -9.1344    1.6225  -23.9994 C   0  0  0  0  0  0  0  0  0  0  0  0
   -7.8207    1.6678  -23.9782 N   0  0  0  0  0  0  0  0  0  0  0  0
   -7.4911    2.3055  -22.8374 N   0  0  0  0  0  0  0  0  0  0  0  0
   -8.5430    2.6277  -22.1733 N   0  0  0  0  0  0  0  0  0  0  0  0
   -9.5978    2.2028  -22.8874 N   0  0  0  0  0  0  0  0  0  0  0  0
  -10.9297    2.4978  -22.3952 C   0  0  0  0  0  0  0  0  0  0  0  0
  -11.0394    2.0396  -21.4104 H   0  0  0  0  0  0  0  0  0  0  0  0
  -11.7076    2.1437  -23.0724 H   0  0  0  0  0  0  0  0  0  0  0  0
  -11.0219    3.5792  -22.3114 H   0  0  0  0  0  0  0  0  0  0  0  0
  -10.8663    1.3588  -25.2569 H   0  0  0  0  0  0  0  0  0  0  0  0
   -9.3584    0.5892  -25.8333 H   0  0  0  0  0  0  0  0  0  0  0  0
  -11.6446   -0.5302  -23.8208 C   0  0  0  0  0  0  0  0  0  0  0  0
  -12.5502    0.2149  -24.1899 O   0  0  0  0  0  0  0  0  0  0  0  0
  -11.8816   -1.6322  -22.8392 C   0  0  0  0  0  0  0  0  0  0  0  0
  -13.2008   -1.8464  -22.4381 C   0  0  0  0  0  0  0  0  0  0  0  0
  -13.5141   -2.8550  -21.5531 C   0  0  0  0  0  0  0  0  0  0  0  0
  -12.4810   -3.6563  -21.1073 C   0  0  0  0  0  0  0  0  0  0  0  0
  -12.7725   -4.5676  -20.1617 F   0  0  0  0  0  0  0  0  0  0  0  0
  -11.1747   -3.4982  -21.5272 C   0  0  0  0  0  0  0  0  0  0  0  0
  -10.8254   -2.4304  -22.3598 C   0  0  0  0  0  0  0  0  0  0  0  0
  -10.4389   -4.1615  -21.0978 H   0  0  0  0  0  0  0  0  0  0  0  0
  -14.5148   -3.0417  -21.1886 H   0  0  0  0  0  0  0  0  0  0  0  0
  -13.9760   -1.1988  -22.8253 H   0  0  0  0  0  0  0  0  0  0  0  0
   -8.3549   -0.8765  -24.1268 H   0  0  0  0  0  0  0  0  0  0  0  0
   -9.3921   -2.1722  -24.7918 H   0  0  0  0  0  0  0  0  0  0  0  0
   -6.4302   -2.1688  -22.9239 H   0  0  0  0  0  0  0  0  0  0  0  0
   -6.3776   -3.1307  -21.4324 H   0  0  0  0  0  0  0  0  0  0  0  0
   -8.6230   -3.8614  -21.7153 H   0  0  0  0  0  0  0  0  0  0  0  0
   -7.4037   -4.8438  -23.6264 H   0  0  0  0  0  0  0  0  0  0  0  0
   -9.0354   -4.4155  -24.1867 H   0  0  0  0  0  0  0  0  0  0  0  0
   -7.6504   -3.3806  -24.5845 H   0  0  0  0  0  0  0  0  0  0  0  0
  1  2  1  0
  2  3  1  0
  3  4  1  0
  4  5  1  0
  5  6  2  0
  6  7  1  0
  7  8  2  0
  8  9  1  0
  9 10  2  0
 10 11  1  0
 11 12  2  0
 12 13  1  0
 13 14  2  0
 13 15  1  0
 12 16  1  0
 11 17  1  0
 10 18  1  0
  8 19  1  0
  6 20  1  0
  4 21  1  0
 21 22  2  0
 21 23  1  0
 23 24  1  6
 24 25  1  0
 25 26  1  0
 26 27  1  0
 27 28  2  0
 28 29  1  0
 29 30  2  0
 30 31  1  0
 31 32  1  0
 32 33  1  0
 32 34  1  0
 32 35  1  0
 26 36  1  0
 26 37  1  0
 25 38  1  0
 38 39  2  0
 38 40  1  0
 40 41  2  0
 41 42  1  0
 42 43  2  0
 43 44  1  0
 43 45  1  0
 45 46  2  0
 45 47  1  0
 42 48  1  0
 41 49  1  0
 24 50  1  0
 24 51  1  0
  3 52  1  0
  3 53  1  0
  2 54  1  1
  1 55  1  0
  1 56  1  0
  1 57  1  0
 23  2  1  0
 31 27  1  0
 46 40  1  0
 14  5  1  0
 46 23  1  0
 14  9  1  0
M  END
>  <cnnaffinities>  (32) 
[6.67085, 6.00637]

>  <score>  (32) 
6.67085

>  <index>  (32) 
32

>  <Smiles>  (32) 
C([C@]1(C(N(c2c(nc(c3c(c(c(c(c23)[H])[H])[H])[H])[H])[H])C(=O)[C@]21C(N(C(c1nnnn1C([H])([H])[H])([H])[H])C(=O)c1c(c(c(F)c(c21)[H])[H])[H])([H])[H])([H])[H])[H])([H])([H])[H]

>  <h>  (32) 
<NA>

>  <Training>  (32) 
True

>  <Success>  (32) 
True

>  <enamine_searched>  (32) 
False

>  <enamine_id>  (32) 
nan

$$$$

     RDKit          3D

 66 70  0  0  0  0  0  0  0  0999 V2000
   -7.7428    2.8824  -22.3022 C   0  0  0  0  0  0  0  0  0  0  0  0
   -8.6711    2.3796  -23.2814 N   0  0  0  0  0  0  0  0  0  0  0  0
   -8.2153    1.8444  -24.4388 C   0  0  0  0  0  0  0  0  0  0  0  0
   -7.0363    1.8124  -24.7669 O   0  0  0  0  0  0  0  0  0  0  0  0
   -9.3191    1.1768  -25.2508 C   0  0  0  0  0  0  0  0  0  0  0  0
   -9.8520    0.0563  -24.4905 N   0  0  0  0  0  0  0  0  0  0  0  0
   -8.9127   -1.0030  -24.1656 C   0  0  0  0  0  0  0  0  0  0  0  0
   -9.2080   -1.7378  -22.8224 C   0  0  2  0  0  0  0  0  0  0  0  0
   -8.6943   -0.8796  -21.6303 C   0  0  0  0  0  0  0  0  0  0  0  0
   -9.2634    0.0719  -21.1283 O   0  0  0  0  0  0  0  0  0  0  0  0
   -7.4633   -1.3606  -21.2389 N   0  0  0  0  0  0  0  0  0  0  0  0
   -6.6951   -0.7754  -20.1957 C   0  0  0  0  0  0  0  0  0  0  0  0
   -7.0196   -1.0010  -18.8817 C   0  0  0  0  0  0  0  0  0  0  0  0
   -6.3072   -0.5393  -17.8217 N   0  0  0  0  0  0  0  0  0  0  0  0
   -5.2323    0.1667  -18.0768 C   0  0  0  0  0  0  0  0  0  0  0  0
   -4.7821    0.4875  -19.3903 C   0  0  0  0  0  0  0  0  0  0  0  0
   -3.6231    1.2786  -19.6209 C   0  0  0  0  0  0  0  0  0  0  0  0
   -3.2395    1.5923  -20.8959 C   0  0  0  0  0  0  0  0  0  0  0  0
   -3.9958    1.1410  -21.9984 C   0  0  0  0  0  0  0  0  0  0  0  0
   -5.1203    0.3732  -21.8011 C   0  0  0  0  0  0  0  0  0  0  0  0
   -5.5369    0.0134  -20.4894 C   0  0  0  0  0  0  0  0  0  0  0  0
   -5.7344    0.1084  -22.6574 H   0  0  0  0  0  0  0  0  0  0  0  0
   -3.7042    1.4206  -23.0067 H   0  0  0  0  0  0  0  0  0  0  0  0
   -2.3634    2.2101  -21.0735 H   0  0  0  0  0  0  0  0  0  0  0  0
   -3.0547    1.6369  -18.7672 H   0  0  0  0  0  0  0  0  0  0  0  0
   -4.6573    0.5324  -17.2232 H   0  0  0  0  0  0  0  0  0  0  0  0
   -7.8958   -1.5988  -18.6436 H   0  0  0  0  0  0  0  0  0  0  0  0
   -7.0031   -2.4975  -22.0142 C   0  0  0  0  0  0  0  0  0  0  0  0
   -8.2908   -2.9912  -22.7026 C   0  0  2  0  0  0  0  0  0  0  0  0
   -8.0064   -3.7193  -24.0077 C   0  0  0  0  0  0  0  0  0  0  0  0
   -7.2662   -4.8882  -23.7455 O   0  0  0  0  0  0  0  0  0  0  0  0
   -7.0699   -5.6819  -24.9103 C   0  0  0  0  0  0  0  0  0  0  0  0
   -5.6974   -6.3240  -24.7998 C   0  0  0  0  0  0  0  0  0  0  0  0
   -5.4836   -6.9379  -25.6817 H   0  0  0  0  0  0  0  0  0  0  0  0
   -4.9170   -5.5620  -24.7104 H   0  0  0  0  0  0  0  0  0  0  0  0
   -5.6665   -6.9606  -23.9111 H   0  0  0  0  0  0  0  0  0  0  0  0
   -8.1820   -6.7182  -25.0090 C   0  0  0  0  0  0  0  0  0  0  0  0
   -8.1638   -7.3494  -24.1161 H   0  0  0  0  0  0  0  0  0  0  0  0
   -9.1695   -6.2480  -25.0695 H   0  0  0  0  0  0  0  0  0  0  0  0
   -8.0493   -7.3506  -25.8933 H   0  0  0  0  0  0  0  0  0  0  0  0
   -7.0921   -5.0323  -25.8016 H   0  0  0  0  0  0  0  0  0  0  0  0
   -8.9553   -3.9529  -24.5204 H   0  0  0  0  0  0  0  0  0  0  0  0
   -7.4111   -3.0744  -24.6772 H   0  0  0  0  0  0  0  0  0  0  0  0
   -8.7678   -3.7063  -22.0297 H   0  0  0  0  0  0  0  0  0  0  0  0
   -6.2286   -2.2125  -22.7467 H   0  0  0  0  0  0  0  0  0  0  0  0
   -6.5689   -3.2587  -21.3607 H   0  0  0  0  0  0  0  0  0  0  0  0
  -10.7094   -1.9784  -22.7064 C   0  0  0  0  0  0  0  0  0  0  0  0
  -11.2450   -2.9566  -21.8538 C   0  0  0  0  0  0  0  0  0  0  0  0
  -12.6148   -3.0384  -21.6496 C   0  0  0  0  0  0  0  0  0  0  0  0
  -13.2651   -4.1843  -20.5141 Cl  0  0  0  0  0  0  0  0  0  0  0  0
  -13.5158   -2.2024  -22.3037 C   0  0  0  0  0  0  0  0  0  0  0  0
  -13.0019   -1.2416  -23.1435 C   0  0  0  0  0  0  0  0  0  0  0  0
  -11.6260   -1.1160  -23.3291 C   0  0  0  0  0  0  0  0  0  0  0  0
  -11.1771    0.0337  -24.1744 C   0  0  0  0  0  0  0  0  0  0  0  0
  -11.9528    0.9111  -24.5303 O   0  0  0  0  0  0  0  0  0  0  0  0
  -13.6496   -0.5377  -23.6505 H   0  0  0  0  0  0  0  0  0  0  0  0
  -14.5825   -2.2989  -22.1243 H   0  0  0  0  0  0  0  0  0  0  0  0
  -10.6096   -3.6514  -21.3154 H   0  0  0  0  0  0  0  0  0  0  0  0
   -8.9054   -1.7205  -24.9916 H   0  0  0  0  0  0  0  0  0  0  0  0
   -7.9158   -0.5508  -24.1215 H   0  0  0  0  0  0  0  0  0  0  0  0
   -8.9011    0.8644  -26.2122 H   0  0  0  0  0  0  0  0  0  0  0  0
  -10.1470    1.8666  -25.4242 H   0  0  0  0  0  0  0  0  0  0  0  0
   -9.5871    2.1091  -22.9664 H   0  0  0  0  0  0  0  0  0  0  0  0
   -7.4439    3.9145  -22.5044 H   0  0  0  0  0  0  0  0  0  0  0  0
   -8.2115    2.8413  -21.3236 H   0  0  0  0  0  0  0  0  0  0  0  0
   -6.8561    2.2468  -22.2799 H   0  0  0  0  0  0  0  0  0  0  0  0
  1  2  1  0
  2  3  1  0
  3  4  2  0
  3  5  1  0
  5  6  1  0
  6  7  1  0
  8  7  1  6
  8  9  1  0
  9 10  2  0
  9 11  1  0
 11 12  1  0
 12 13  2  0
 13 14  1  0
 14 15  2  0
 15 16  1  0
 16 17  2  0
 17 18  1  0
 18 19  2  0
 19 20  1  0
 20 21  2  0
 20 22  1  0
 19 23  1  0
 18 24  1  0
 17 25  1  0
 15 26  1  0
 13 27  1  0
 11 28  1  0
 28 29  1  0
 29 30  1  0
 30 31  1  0
 31 32  1  0
 32 33  1  0
 33 34  1  0
 33 35  1  0
 33 36  1  0
 32 37  1  0
 37 38  1  0
 37 39  1  0
 37 40  1  0
 32 41  1  0
 30 42  1  0
 30 43  1  0
 29 44  1  1
 28 45  1  0
 28 46  1  0
  8 47  1  0
 47 48  2  0
 48 49  1  0
 49 50  1  0
 49 51  2  0
 51 52  1  0
 52 53  2  0
 53 54  1  0
 54 55  2  0
 52 56  1  0
 51 57  1  0
 48 58  1  0
  7 59  1  0
  7 60  1  0
  5 61  1  0
  5 62  1  0
  2 63  1  0
  1 64  1  0
  1 65  1  0
  1 66  1  0
 54  6  1  0
 29  8  1  0
 53 47  1  0
 21 12  1  0
 21 16  1  0
M  END
>  <cnnaffinities>  (33) 
[6.52536, 6.58618, 6.42578, 6.34462]

>  <score>  (33) 
6.52536

>  <index>  (33) 
34

>  <Smiles>  (33) 
C(N(C(=O)C(N1C([C@@]2(C(=O)N(c3c(nc(c4c(c(c(c(c34)[H])[H])[H])[H])[H])[H])C([C@@]2(C(OC(C([H])([H])[H])(C([H])([H])[H])[H])([H])[H])[H])([H])[H])c2c(c(Cl)c(c(c2C1=O)[H])[H])[H])([H])[H])([H])[H])[H])([H])([H])[H]

>  <h>  (33) 
<NA>

>  <Training>  (33) 
True

>  <Success>  (33) 
True

>  <enamine_searched>  (33) 
False

>  <enamine_id>  (33) 
nan

$$$$

     RDKit          3D

 40 42  0  0  0  0  0  0  0  0999 V2000
   -9.1341   -1.8420  -22.7915 O   0  0  0  0  0  0  0  0  0  0  0  0
   -8.2612   -1.0629  -22.4242 C   0  0  0  0  0  0  0  0  0  0  0  0
   -6.9095   -1.5811  -21.9352 C   0  0  0  0  0  0  0  0  0  0  0  0
   -6.3506   -0.8505  -20.7214 C   0  0  0  0  0  0  0  0  0  0  0  0
   -6.9987   -0.9584  -19.5122 C   0  0  0  0  0  0  0  0  0  0  0  0
   -6.5689   -0.4449  -18.3307 N   0  0  0  0  0  0  0  0  0  0  0  0
   -5.4540    0.2455  -18.3568 C   0  0  0  0  0  0  0  0  0  0  0  0
   -4.6974    0.4976  -19.5337 C   0  0  0  0  0  0  0  0  0  0  0  0
   -3.5434    1.3249  -19.5177 C   0  0  0  0  0  0  0  0  0  0  0  0
   -2.8764    1.6069  -20.6790 C   0  0  0  0  0  0  0  0  0  0  0  0
   -3.3193    1.0544  -21.8953 C   0  0  0  0  0  0  0  0  0  0  0  0
   -4.4196    0.2273  -21.9312 C   0  0  0  0  0  0  0  0  0  0  0  0
   -5.1493   -0.0665  -20.7506 C   0  0  0  0  0  0  0  0  0  0  0  0
   -4.7596   -0.1532  -22.8891 H   0  0  0  0  0  0  0  0  0  0  0  0
   -2.8012    1.3028  -22.8141 H   0  0  0  0  0  0  0  0  0  0  0  0
   -2.0162    2.2684  -20.6713 H   0  0  0  0  0  0  0  0  0  0  0  0
   -3.2197    1.7449  -18.5714 H   0  0  0  0  0  0  0  0  0  0  0  0
   -5.1012    0.6517  -17.4111 H   0  0  0  0  0  0  0  0  0  0  0  0
   -7.9229   -1.5344  -19.4434 H   0  0  0  0  0  0  0  0  0  0  0  0
   -7.0703   -2.6388  -21.6929 H   0  0  0  0  0  0  0  0  0  0  0  0
   -6.1942   -1.5639  -22.7642 H   0  0  0  0  0  0  0  0  0  0  0  0
   -8.3524    0.3017  -22.3994 N   0  0  0  0  0  0  0  0  0  0  0  0
   -9.5584    0.8877  -21.7614 C   0  0  0  0  0  0  0  0  0  0  0  0
   -9.5498    1.0403  -21.9448 C   0  0  0  0  0  0  0  0  0  0  0  0
   -9.2842    2.7446  -23.7441 C   0  0  0  0  0  0  0  0  0  0  0  0
   -9.1520    5.5115  -23.0023 C   0  0  0  0  0  0  0  0  0  0  0  0
   -8.3765    6.2245  -23.7973 F   0  0  0  0  0  0  0  0  0  0  0  0
  -10.2710    6.1639  -22.7449 F   0  0  0  0  0  0  0  0  0  0  0  0
   -8.5237    5.2232  -21.8781 F   0  0  0  0  0  0  0  0  0  0  0  0
   -7.9886    2.4688  -23.6588 C   0  0  0  0  0  0  0  0  0  0  0  0
   -7.3940    1.1931  -23.1337 C   0  0  0  0  0  0  0  0  0  0  0  0
   -6.9695    0.6251  -23.9641 H   0  0  0  0  0  0  0  0  0  0  0  0
   -6.5829    1.4576  -22.4477 H   0  0  0  0  0  0  0  0  0  0  0  0
  -10.0174    1.9687  -23.6428 H   0  0  0  0  0  0  0  0  0  0  0  0
   -7.2395    3.2023  -23.9542 H   0  0  0  0  0  0  0  0  0  0  0  0
   -9.5942    3.7737  -23.9219 H   0  0  0  0  0  0  0  0  0  0  0  0
  -10.4862    1.7812  -21.6849 H   0  0  0  0  0  0  0  0  0  0  0  0
   -8.8465    1.9141  -21.4501 H   0  0  0  0  0  0  0  0  0  0  0  0
   -9.8312    0.0792  -20.4518 H   0  0  0  0  0  0  0  0  0  0  0  0
  -10.3194    0.4822  -22.7101 H   0  0  0  0  0  0  0  0  0  0  0  0
  1  2  2  0
  2  3  1  0
  3  4  1  0
  4  5  2  0
  5  6  1  0
  6  7  2  0
  7  8  1  0
  8  9  2  0
  9 10  1  0
 10 11  2  0
 11 12  1  0
 12 13  2  0
 12 14  1  0
 11 15  1  0
 10 16  1  0
  9 17  1  0
  7 18  1  0
  5 19  1  0
  3 20  1  0
  3 21  1  0
  2 22  1  0
 22 23  1  0
 23 24  1  0
 24 25  1  0
 25 26  1  0
 26 27  1  0
 26 28  1  0
 26 29  1  0
 25 30  1  0
 30 31  1  0
 31 32  1  0
 31 33  1  0
 30 34  1  0
 30 35  1  0
 25 36  1  0
 24 37  1  0
 24 38  1  0
 23 39  1  0
 23 40  1  0
 13  4  1  0
 31 22  1  0
 13  8  1  0
M  END
>  <cnnaffinities>  (34) 
[4.61579]

>  <score>  (34) 
4.61579

>  <index>  (34) 
35

>  <Smiles>  (34) 
O=C(C(c1c(nc(c2c(c(c(c(c12)[H])[H])[H])[H])[H])[H])([H])[H])N1C(C(C(C(F)(F)F)(C(C1([H])[H])([H])[H])[H])([H])[H])([H])[H]

>  <h>  (34) 
<NA>

>  <Training>  (34) 
True

>  <Success>  (34) 
True

>  <enamine_searched>  (34) 
False

>  <enamine_id>  (34) 
nan

$$$$

     RDKit          3D

 47 50  0  0  0  0  0  0  0  0999 V2000
   -8.6909    0.6115  -21.3556 O   0  0  0  0  0  0  0  0  0  0  0  0
   -8.3366   -0.3828  -21.9590 C   0  0  0  0  0  0  0  0  0  0  0  0
   -7.4331   -1.4322  -21.2723 C   0  0  0  0  0  0  0  0  0  0  0  0
   -6.5769   -0.8326  -20.1790 C   0  0  0  0  0  0  0  0  0  0  0  0
   -6.8804   -1.0379  -18.8591 C   0  0  0  0  0  0  0  0  0  0  0  0
   -6.1985   -0.5311  -17.7946 N   0  0  0  0  0  0  0  0  0  0  0  0
   -5.1579    0.2187  -18.0642 C   0  0  0  0  0  0  0  0  0  0  0  0
   -4.7229    0.5313  -19.3802 C   0  0  0  0  0  0  0  0  0  0  0  0
   -3.5975    1.3621  -19.6215 C   0  0  0  0  0  0  0  0  0  0  0  0
   -3.2069    1.6544  -20.9002 C   0  0  0  0  0  0  0  0  0  0  0  0
   -3.9290    1.1243  -21.9931 C   0  0  0  0  0  0  0  0  0  0  0  0
   -5.0214    0.3183  -21.7872 C   0  0  0  0  0  0  0  0  0  0  0  0
   -5.4519   -0.0030  -20.4724 C   0  0  0  0  0  0  0  0  0  0  0  0
   -5.5693   -0.0681  -22.6425 H   0  0  0  0  0  0  0  0  0  0  0  0
   -3.6197    1.3689  -23.0044 H   0  0  0  0  0  0  0  0  0  0  0  0
   -2.3517    2.2996  -21.0880 H   0  0  0  0  0  0  0  0  0  0  0  0
   -3.0555    1.7697  -18.7717 H   0  0  0  0  0  0  0  0  0  0  0  0
   -4.6027    0.6240  -17.2155 H   0  0  0  0  0  0  0  0  0  0  0  0
   -7.7305   -1.6590  -18.5838 H   0  0  0  0  0  0  0  0  0  0  0  0
   -8.0865   -2.1979  -20.8323 H   0  0  0  0  0  0  0  0  0  0  0  0
   -6.8083   -1.9519  -22.0116 H   0  0  0  0  0  0  0  0  0  0  0  0
   -8.6773   -0.6031  -23.2869 N   0  0  0  0  0  0  0  0  0  0  0  0
   -9.1592    0.5342  -24.0694 C   0  0  0  0  0  0  0  0  0  0  0  0
  -10.6772    0.5435  -24.2208 C   0  0  0  0  0  0  0  0  0  0  0  0
  -11.1720   -0.7930  -24.7675 C   0  0  0  0  0  0  0  0  0  0  0  0
  -10.6157   -1.9402  -23.9268 C   0  0  0  0  0  0  0  0  0  0  0  0
   -9.0790   -1.9111  -23.8203 C   0  0  1  0  0  0  0  0  0  0  0  0
   -8.3313   -2.2541  -25.1126 C   0  0  0  0  0  0  0  0  0  0  0  0
   -6.9742   -1.9284  -25.2098 C   0  0  0  0  0  0  0  0  0  0  0  0
   -6.2253   -2.2428  -26.3371 C   0  0  0  0  0  0  0  0  0  0  0  0
   -6.8149   -2.9060  -27.4063 C   0  0  0  0  0  0  0  0  0  0  0  0
   -8.1564   -3.2579  -27.3188 C   0  0  0  0  0  0  0  0  0  0  0  0
   -8.9049   -2.9421  -26.1858 C   0  0  0  0  0  0  0  0  0  0  0  0
   -9.9460   -3.2499  -26.1594 H   0  0  0  0  0  0  0  0  0  0  0  0
   -8.6291   -3.7892  -28.1401 H   0  0  0  0  0  0  0  0  0  0  0  0
   -6.2343   -3.1491  -28.2927 H   0  0  0  0  0  0  0  0  0  0  0  0
   -5.1769   -1.9639  -26.3823 H   0  0  0  0  0  0  0  0  0  0  0  0
   -6.4815   -1.4129  -24.3910 H   0  0  0  0  0  0  0  0  0  0  0  0
   -8.7903   -2.6555  -23.0728 H   0  0  0  0  0  0  0  0  0  0  0  0
  -10.9422   -2.9159  -24.2899 H   0  0  0  0  0  0  0  0  0  0  0  0
  -11.0242   -1.8679  -22.9129 H   0  0  0  0  0  0  0  0  0  0  0  0
  -10.8499   -0.9102  -25.8097 H   0  0  0  0  0  0  0  0  0  0  0  0
  -12.2673   -0.8173  -24.7714 H   0  0  0  0  0  0  0  0  0  0  0  0
  -10.9886    1.3656  -24.8780 H   0  0  0  0  0  0  0  0  0  0  0  0
  -11.1161    0.7403  -23.2378 H   0  0  0  0  0  0  0  0  0  0  0  0
   -8.8054    1.4510  -23.5987 H   0  0  0  0  0  0  0  0  0  0  0  0
   -8.7005    0.4721  -25.0632 H   0  0  0  0  0  0  0  0  0  0  0  0
  1  2  2  0
  2  3  1  0
  3  4  1  0
  4  5  2  0
  5  6  1  0
  6  7  2  0
  7  8  1  0
  8  9  2  0
  9 10  1  0
 10 11  2  0
 11 12  1  0
 12 13  2  0
 12 14  1  0
 11 15  1  0
 10 16  1  0
  9 17  1  0
  7 18  1  0
  5 19  1  0
  3 20  1  0
  3 21  1  0
  2 22  1  0
 22 23  1  0
 23 24  1  0
 24 25  1  0
 25 26  1  0
 26 27  1  0
 27 28  1  0
 28 29  2  0
 29 30  1  0
 30 31  2  0
 31 32  1  0
 32 33  2  0
 33 34  1  0
 32 35  1  0
 31 36  1  0
 30 37  1  0
 29 38  1  0
 27 39  1  1
 26 40  1  0
 26 41  1  0
 25 42  1  0
 25 43  1  0
 24 44  1  0
 24 45  1  0
 23 46  1  0
 23 47  1  0
 13  4  1  0
 27 22  1  0
 33 28  1  0
 13  8  1  0
M  END
>  <cnnaffinities>  (35) 
[5.05941, 5.05944, 4.88546, 4.88501]

>  <score>  (35) 
5.05941

>  <index>  (35) 
36

>  <Smiles>  (35) 
O=C(C(c1c(nc(c2c(c(c(c(c12)[H])[H])[H])[H])[H])[H])([H])[H])N1C(C(C(C([C@]1(c1c(c(c(c(c1[H])[H])[H])[H])[H])[H])([H])[H])([H])[H])([H])[H])([H])[H]

>  <h>  (35) 
<NA>

>  <Training>  (35) 
True

>  <Success>  (35) 
True

>  <enamine_searched>  (35) 
False

>  <enamine_id>  (35) 
nan

$$$$

     RDKit          3D

 56 60  0  0  0  0  0  0  0  0999 V2000
  -14.5689   -1.4831  -23.7278 C   0  0  0  0  0  0  0  0  0  0  0  0
  -13.8392   -2.6063  -23.2042 N   0  0  0  0  0  0  0  0  0  0  0  0
  -13.4077   -2.6401  -21.9261 C   0  0  0  0  0  0  0  0  0  0  0  0
  -13.7561   -1.8158  -21.0993 O   0  0  0  0  0  0  0  0  0  0  0  0
  -12.4795   -3.8252  -21.6521 C   0  0  0  0  0  0  0  0  0  0  0  0
  -11.1598   -3.7541  -22.2764 N   0  0  0  0  0  0  0  0  0  0  0  0
  -10.0098   -3.3170  -21.4823 C   0  0  0  0  0  0  0  0  0  0  0  0
   -8.8130   -2.8749  -22.3551 C   0  0  2  0  0  0  0  0  0  0  0  0
   -7.5889   -2.6804  -21.4524 C   0  0  0  0  0  0  0  0  0  0  0  0
   -6.8611   -3.5482  -21.0173 O   0  0  0  0  0  0  0  0  0  0  0  0
   -7.4112   -1.3315  -21.2349 N   0  0  0  0  0  0  0  0  0  0  0  0
   -6.5907   -0.8533  -20.1871 C   0  0  0  0  0  0  0  0  0  0  0  0
   -6.9072   -1.1017  -18.8750 C   0  0  0  0  0  0  0  0  0  0  0  0
   -6.2398   -0.5729  -17.8173 N   0  0  0  0  0  0  0  0  0  0  0  0
   -5.2116    0.1953  -18.0835 C   0  0  0  0  0  0  0  0  0  0  0  0
   -4.7545    0.5030  -19.3971 C   0  0  0  0  0  0  0  0  0  0  0  0
   -3.6216    1.3236  -19.6311 C   0  0  0  0  0  0  0  0  0  0  0  0
   -3.2236    1.5977  -20.9101 C   0  0  0  0  0  0  0  0  0  0  0  0
   -3.9298    1.0647  -22.0119 C   0  0  0  0  0  0  0  0  0  0  0  0
   -5.0269    0.2635  -21.8120 C   0  0  0  0  0  0  0  0  0  0  0  0
   -5.4656   -0.0290  -20.4929 C   0  0  0  0  0  0  0  0  0  0  0  0
   -5.5627   -0.1527  -22.6590 H   0  0  0  0  0  0  0  0  0  0  0  0
   -3.6054    1.2975  -23.0218 H   0  0  0  0  0  0  0  0  0  0  0  0
   -2.3661    2.2391  -21.0905 H   0  0  0  0  0  0  0  0  0  0  0  0
   -3.0881    1.7257  -18.7747 H   0  0  0  0  0  0  0  0  0  0  0  0
   -4.6737    0.6133  -17.2332 H   0  0  0  0  0  0  0  0  0  0  0  0
   -7.7541   -1.7396  -18.6317 H   0  0  0  0  0  0  0  0  0  0  0  0
   -8.3992   -0.4911  -21.8940 C   0  0  0  0  0  0  0  0  0  0  0  0
   -9.0141   -1.4303  -22.9439 C   0  0  2  0  0  0  0  0  0  0  0  0
  -10.4544   -1.0812  -23.2974 C   0  0  0  0  0  0  0  0  0  0  0  0
  -10.8628   -1.8431  -23.9654 H   0  0  0  0  0  0  0  0  0  0  0  0
  -10.5379   -0.1078  -23.7882 H   0  0  0  0  0  0  0  0  0  0  0  0
  -11.0777   -1.0689  -22.3952 H   0  0  0  0  0  0  0  0  0  0  0  0
   -8.3917   -1.3909  -23.8507 H   0  0  0  0  0  0  0  0  0  0  0  0
   -9.1565   -0.1275  -21.1774 H   0  0  0  0  0  0  0  0  0  0  0  0
   -7.9240    0.3883  -22.3449 H   0  0  0  0  0  0  0  0  0  0  0  0
   -8.5564   -3.9269  -23.4005 C   0  0  0  0  0  0  0  0  0  0  0  0
   -7.2813   -4.0907  -23.9529 C   0  0  0  0  0  0  0  0  0  0  0  0
   -7.0606   -5.0347  -24.9431 C   0  0  0  0  0  0  0  0  0  0  0  0
   -8.1013   -5.8574  -25.3809 C   0  0  0  0  0  0  0  0  0  0  0  0
   -9.3740   -5.6797  -24.8672 C   0  0  0  0  0  0  0  0  0  0  0  0
   -9.5990   -4.7148  -23.8866 C   0  0  0  0  0  0  0  0  0  0  0  0
  -10.9935   -4.5186  -23.4009 C   0  0  0  0  0  0  0  0  0  0  0  0
  -11.9484   -5.0001  -24.0034 O   0  0  0  0  0  0  0  0  0  0  0  0
  -10.2215   -6.2674  -25.2064 H   0  0  0  0  0  0  0  0  0  0  0  0
   -7.9142   -6.6407  -26.1124 H   0  0  0  0  0  0  0  0  0  0  0  0
   -6.0591   -5.1743  -25.3396 H   0  0  0  0  0  0  0  0  0  0  0  0
   -6.4452   -3.5108  -23.5713 H   0  0  0  0  0  0  0  0  0  0  0  0
  -10.2888   -2.4426  -20.8838 H   0  0  0  0  0  0  0  0  0  0  0  0
   -9.7023   -4.1323  -20.8150 H   0  0  0  0  0  0  0  0  0  0  0  0
  -12.3998   -4.0170  -20.5837 H   0  0  0  0  0  0  0  0  0  0  0  0
  -12.9948   -4.6636  -22.1199 H   0  0  0  0  0  0  0  0  0  0  0  0
  -13.6727   -3.4251  -23.7548 H   0  0  0  0  0  0  0  0  0  0  0  0
  -13.9198   -0.6037  -23.7648 H   0  0  0  0  0  0  0  0  0  0  0  0
  -15.4206   -1.2515  -23.0864 H   0  0  0  0  0  0  0  0  0  0  0  0
  -14.9092   -1.7264  -24.7350 H   0  0  0  0  0  0  0  0  0  0  0  0
  1  2  1  0
  2  3  1  0
  3  4  2  0
  3  5  1  0
  5  6  1  0
  6  7  1  0
  8  7  1  1
  8  9  1  0
  9 10  2  0
  9 11  1  0
 11 12  1  0
 12 13  2  0
 13 14  1  0
 14 15  2  0
 15 16  1  0
 16 17  2  0
 17 18  1  0
 18 19  2  0
 19 20  1  0
 20 21  2  0
 20 22  1  0
 19 23  1  0
 18 24  1  0
 17 25  1  0
 15 26  1  0
 13 27  1  0
 11 28  1  0
 28 29  1  0
 29 30  1  0
 30 31  1  0
 30 32  1  0
 30 33  1  0
 29 34  1  6
 28 35  1  0
 28 36  1  0
  8 37  1  0
 37 38  2  0
 38 39  1  0
 39 40  2  0
 40 41  1  0
 41 42  2  0
 42 43  1  0
 43 44  2  0
 41 45  1  0
 40 46  1  0
 39 47  1  0
 38 48  1  0
  7 49  1  0
  7 50  1  0
  5 51  1  0
  5 52  1  0
  2 53  1  0
  1 54  1  0
  1 55  1  0
  1 56  1  0
 43  6  1  0
 29  8  1  0
 42 37  1  0
 21 12  1  0
 21 16  1  0
M  END
>  <cnnaffinities>  (36) 
[6.10457]

>  <score>  (36) 
6.10457

>  <index>  (36) 
37

>  <Smiles>  (36) 
C(N(C(=O)C(N1C([C@@]2(C(=O)N(c3c(nc(c4c(c(c(c(c34)[H])[H])[H])[H])[H])[H])C([C@@]2(C([H])([H])[H])[H])([H])[H])c2c(c(c(c(c2C1=O)[H])[H])[H])[H])([H])[H])([H])[H])[H])([H])([H])[H]

>  <h>  (36) 
<NA>

>  <Training>  (36) 
True

>  <Success>  (36) 
True

>  <enamine_searched>  (36) 
False

>  <enamine_id>  (36) 
nan

$$$$

     RDKit          3D

 46 48  0  0  0  0  0  0  0  0999 V2000
   -9.0756   -4.9590  -25.9107 C   0  0  0  0  0  0  0  0  0  0  0  0
   -7.6974   -4.2979  -25.8626 C   0  0  1  0  0  0  0  0  0  0  0  0
   -7.7258   -2.8067  -25.5537 C   0  0  0  0  0  0  0  0  0  0  0  0
   -7.9783   -2.4236  -24.0865 C   0  0  1  0  0  0  0  0  0  0  0  0
   -9.4600   -2.4461  -23.6789 C   0  0  0  0  0  0  0  0  0  0  0  0
   -9.6855   -1.6837  -22.9259 H   0  0  0  0  0  0  0  0  0  0  0  0
  -10.1050   -2.2403  -24.5411 H   0  0  0  0  0  0  0  0  0  0  0  0
   -9.7527   -3.4134  -23.2666 H   0  0  0  0  0  0  0  0  0  0  0  0
   -7.1056   -3.1820  -23.1792 N   0  0  0  0  0  0  0  0  0  0  0  0
   -6.6948   -2.6877  -21.9485 C   0  0  0  0  0  0  0  0  0  0  0  0
   -5.7923   -3.2319  -21.3337 O   0  0  0  0  0  0  0  0  0  0  0  0
   -7.3966   -1.4612  -21.2881 C   0  0  0  0  0  0  0  0  0  0  0  0
   -6.5737   -0.8335  -20.1825 C   0  0  0  0  0  0  0  0  0  0  0  0
   -6.8728   -1.0465  -18.8614 C   0  0  0  0  0  0  0  0  0  0  0  0
   -6.1939   -0.5372  -17.7948 N   0  0  0  0  0  0  0  0  0  0  0  0
   -5.1582    0.2196  -18.0639 C   0  0  0  0  0  0  0  0  0  0  0  0
   -4.7196    0.5297  -19.3787 C   0  0  0  0  0  0  0  0  0  0  0  0
   -3.5925    1.3570  -19.6222 C   0  0  0  0  0  0  0  0  0  0  0  0
   -3.1925    1.6351  -20.9008 C   0  0  0  0  0  0  0  0  0  0  0  0
   -3.9048    1.0937  -21.9932 C   0  0  0  0  0  0  0  0  0  0  0  0
   -4.9996    0.2928  -21.7843 C   0  0  0  0  0  0  0  0  0  0  0  0
   -5.4431   -0.0119  -20.4716 C   0  0  0  0  0  0  0  0  0  0  0  0
   -5.5365   -0.1101  -22.6370 H   0  0  0  0  0  0  0  0  0  0  0  0
   -3.5877    1.3228  -23.0060 H   0  0  0  0  0  0  0  0  0  0  0  0
   -2.3336    2.2750  -21.0892 H   0  0  0  0  0  0  0  0  0  0  0  0
   -3.0531    1.7692  -18.7730 H   0  0  0  0  0  0  0  0  0  0  0  0
   -4.6025    0.6261  -17.2159 H   0  0  0  0  0  0  0  0  0  0  0  0
   -7.7209   -1.6714  -18.5862 H   0  0  0  0  0  0  0  0  0  0  0  0
   -7.6733   -0.6976  -22.0250 H   0  0  0  0  0  0  0  0  0  0  0  0
   -8.3392   -1.8203  -20.8461 H   0  0  0  0  0  0  0  0  0  0  0  0
   -6.8201   -4.6158  -23.4232 C   0  0  1  0  0  0  0  0  0  0  0  0
   -7.7754   -5.5540  -22.6725 C   0  0  0  0  0  0  0  0  0  0  0  0
   -8.8062   -5.4867  -23.0309 H   0  0  0  0  0  0  0  0  0  0  0  0
   -7.7659   -5.3321  -21.6025 H   0  0  0  0  0  0  0  0  0  0  0  0
   -7.4562   -6.5979  -22.7870 H   0  0  0  0  0  0  0  0  0  0  0  0
   -6.6945   -4.9538  -24.9153 C   0  0  0  0  0  0  0  0  0  0  0  0
   -6.7508   -6.0421  -25.0312 H   0  0  0  0  0  0  0  0  0  0  0  0
   -5.6862   -4.6749  -25.2407 H   0  0  0  0  0  0  0  0  0  0  0  0
   -5.8357   -4.7830  -22.9829 H   0  0  0  0  0  0  0  0  0  0  0  0
   -7.6567   -1.3814  -24.0256 H   0  0  0  0  0  0  0  0  0  0  0  0
   -8.4825   -2.3173  -26.1759 H   0  0  0  0  0  0  0  0  0  0  0  0
   -6.7675   -2.3693  -25.8559 H   0  0  0  0  0  0  0  0  0  0  0  0
   -7.2835   -4.4066  -26.8768 H   0  0  0  0  0  0  0  0  0  0  0  0
   -9.6905   -4.5059  -26.6977 H   0  0  0  0  0  0  0  0  0  0  0  0
   -9.6346   -4.8714  -24.9760 H   0  0  0  0  0  0  0  0  0  0  0  0
   -8.9854   -6.0271  -26.1394 H   0  0  0  0  0  0  0  0  0  0  0  0
  1  2  1  0
  2  3  1  0
  3  4  1  0
  4  5  1  0
  5  6  1  0
  5  7  1  0
  5  8  1  0
  4  9  1  0
  9 10  1  0
 10 11  2  0
 10 12  1  0
 12 13  1  0
 13 14  2  0
 14 15  1  0
 15 16  2  0
 16 17  1  0
 17 18  2  0
 18 19  1  0
 19 20  2  0
 20 21  1  0
 21 22  2  0
 21 23  1  0
 20 24  1  0
 19 25  1  0
 18 26  1  0
 16 27  1  0
 14 28  1  0
 12 29  1  0
 12 30  1  0
  9 31  1  0
 31 32  1  0
 32 33  1  0
 32 34  1  0
 32 35  1  0
 31 36  1  0
 36 37  1  0
 36 38  1  0
 31 39  1  1
  4 40  1  6
  3 41  1  0
  3 42  1  0
  2 43  1  6
  1 44  1  0
  1 45  1  0
  1 46  1  0
 36  2  1  0
 22 13  1  0
 22 17  1  0
M  END
>  <cnnaffinities>  (37) 
[4.94041]

>  <score>  (37) 
4.94041

>  <index>  (37) 
38

>  <Smiles>  (37) 
C([C@]1(C([C@@](C([H])([H])[H])(N(C(=O)C(c2c(nc(c3c(c(c(c(c23)[H])[H])[H])[H])[H])[H])([H])[H])[C@@](C([H])([H])[H])(C1([H])[H])[H])[H])([H])[H])[H])([H])([H])[H]

>  <h>  (37) 
<NA>

>  <Training>  (37) 
True

>  <Success>  (37) 
True

>  <enamine_searched>  (37) 
False

>  <enamine_id>  (37) 
nan

$$$$

     RDKit          3D

 40 44  0  0  0  0  0  0  0  0999 V2000
   -8.0661   -5.5662  -25.2276 C   0  0  0  0  0  0  0  0  0  0  0  0
   -9.3168   -4.6943  -25.1785 C   0  0  0  0  0  0  0  0  0  0  0  0
  -10.4415   -5.1391  -25.3576 O   0  0  0  0  0  0  0  0  0  0  0  0
   -9.1240   -3.3689  -24.9093 N   0  0  0  0  0  0  0  0  0  0  0  0
  -10.2557   -2.4712  -24.5999 C   0  0  0  0  0  0  0  0  0  0  0  0
   -9.5393   -1.2717  -23.9810 C   0  0  2  0  0  0  0  0  0  0  0  0
   -8.2899   -1.2163  -24.8842 C   0  0  0  0  0  0  0  0  0  0  0  0
   -7.8864   -2.6754  -24.5183 C   0  0  1  0  0  0  0  0  0  0  0  0
   -7.8733   -2.5265  -23.0530 C   0  0  0  0  0  0  0  0  0  0  0  0
   -6.8406   -2.3970  -22.0794 C   0  0  0  0  0  0  0  0  0  0  0  0
   -5.7374   -2.8894  -22.0257 O   0  0  0  0  0  1  0  0  0  0  0  0
   -7.3614   -1.4507  -21.1580 N   0  0  0  0  0  0  0  0  0  0  0  0
   -6.5781   -0.8284  -20.1566 C   0  0  0  0  0  0  0  0  0  0  0  0
   -6.8970   -1.0455  -18.8420 C   0  0  0  0  0  0  0  0  0  0  0  0
   -6.2049   -0.5315  -17.7971 N   0  0  0  0  0  0  0  0  0  0  0  0
   -5.1636    0.2128  -18.0744 C   0  0  0  0  0  0  0  0  0  0  0  0
   -4.7250    0.5273  -19.3920 C   0  0  0  0  0  0  0  0  0  0  0  0
   -3.5973    1.3598  -19.6285 C   0  0  0  0  0  0  0  0  0  0  0  0
   -3.2129    1.6651  -20.9053 C   0  0  0  0  0  0  0  0  0  0  0  0
   -3.9446    1.1547  -22.0019 C   0  0  0  0  0  0  0  0  0  0  0  0
   -5.0406    0.3533  -21.7975 C   0  0  0  0  0  0  0  0  0  0  0  0
   -5.4540    0.0001  -20.4805 C   0  0  0  0  0  0  0  0  0  0  0  0
   -5.5976   -0.0120  -22.6551 H   0  0  0  0  0  0  0  0  0  0  0  0
   -3.6440    1.4084  -23.0150 H   0  0  0  0  0  0  0  0  0  0  0  0
   -2.3598    2.3153  -21.0878 H   0  0  0  0  0  0  0  0  0  0  0  0
   -3.0625    1.7569  -18.7708 H   0  0  0  0  0  0  0  0  0  0  0  0
   -4.6134    0.6132  -17.2235 H   0  0  0  0  0  0  0  0  0  0  0  0
   -7.7487   -1.6717  -18.5915 H   0  0  0  0  0  0  0  0  0  0  0  0
   -8.6079   -0.9577  -21.5733 C   0  0  0  0  0  0  0  0  0  0  0  0
   -9.2254   -0.0537  -21.0657 O   0  0  0  0  0  0  0  0  0  0  0  0
   -8.9220   -1.7044  -22.7048 N   0  0  0  0  0  0  0  0  0  0  0  0
   -6.9900   -3.1091  -24.9699 H   0  0  0  0  0  0  0  0  0  0  0  0
   -7.5728   -0.4957  -24.4978 H   0  0  0  0  0  0  0  0  0  0  0  0
   -8.4929   -1.0519  -25.9452 H   0  0  0  0  0  0  0  0  0  0  0  0
  -10.1467   -0.3909  -23.8296 H   0  0  0  0  0  0  0  0  0  0  0  0
  -10.9788   -2.9604  -23.9398 H   0  0  0  0  0  0  0  0  0  0  0  0
  -10.7442   -2.1525  -25.5285 H   0  0  0  0  0  0  0  0  0  0  0  0
   -8.3945   -6.5914  -25.4056 H   0  0  0  0  0  0  0  0  0  0  0  0
   -7.4929   -5.5246  -24.2923 H   0  0  0  0  0  0  0  0  0  0  0  0
   -7.3780   -5.2565  -26.0248 H   0  0  0  0  0  0  0  0  0  0  0  0
  1  2  1  0
  2  3  2  0
  2  4  1  0
  4  5  1  0
  5  6  1  0
  6  7  1  0
  7  8  1  0
  8  9  1  0
  9 10  2  0
 10 11  1  0
 10 12  1  0
 12 13  1  0
 13 14  2  0
 14 15  1  0
 15 16  2  0
 16 17  1  0
 17 18  2  0
 18 19  1  0
 19 20  2  0
 20 21  1  0
 21 22  2  0
 21 23  1  0
 20 24  1  0
 19 25  1  0
 18 26  1  0
 16 27  1  0
 14 28  1  0
 12 29  1  0
 29 30  2  0
 29 31  1  0
  8 32  1  6
  7 33  1  0
  7 34  1  0
  6 35  1  1
  5 36  1  0
  5 37  1  0
  1 38  1  0
  1 39  1  0
  1 40  1  0
  8  4  1  0
 31  9  1  0
 31  6  1  0
 22 13  1  0
 22 17  1  0
M  CHG  1  11  -1
M  END
>  <cnnaffinities>  (38) 
[5.13204, 5.09241]

>  <score>  (38) 
5.13204

>  <index>  (38) 
39

>  <Smiles>  (38) 
C(C(=O)N1C([C@@]2(C([C@]1(c1c([O-])n(c3c(nc(c4c(c(c(c(c34)[H])[H])[H])[H])[H])[H])c(=O)n21)[H])([H])[H])[H])([H])[H])([H])([H])[H]

>  <h>  (38) 
<NA>

>  <Training>  (38) 
True

>  <Success>  (38) 
True

>  <enamine_searched>  (38) 
False

>  <enamine_id>  (38) 
nan

$$$$

     RDKit          3D

 40 42  0  0  0  0  0  0  0  0999 V2000
  -10.3271   -4.9807  -24.8887 C   0  0  0  0  0  0  0  0  0  0  0  0
   -8.8219   -4.7802  -25.0669 C   0  0  0  0  0  0  0  0  0  0  0  0
   -8.4513   -3.3007  -25.2212 C   0  0  0  0  0  0  0  0  0  0  0  0
   -8.2378   -2.5723  -23.8956 C   0  0  0  0  0  0  0  0  0  0  0  0
   -7.2660   -3.2587  -23.0480 N   0  0  0  0  0  0  0  0  0  0  0  0
   -6.7093   -2.7021  -21.9167 C   0  0  0  0  0  0  0  0  0  0  0  0
   -5.7135   -3.1792  -21.3987 O   0  0  0  0  0  0  0  0  0  0  0  0
   -7.4010   -1.4665  -21.2819 C   0  0  0  0  0  0  0  0  0  0  0  0
   -6.5759   -0.8320  -20.1835 C   0  0  0  0  0  0  0  0  0  0  0  0
   -6.8739   -1.0469  -18.8637 C   0  0  0  0  0  0  0  0  0  0  0  0
   -6.1943   -0.5382  -17.7981 N   0  0  0  0  0  0  0  0  0  0  0  0
   -5.1587    0.2188  -18.0655 C   0  0  0  0  0  0  0  0  0  0  0  0
   -4.7206    0.5292  -19.3800 C   0  0  0  0  0  0  0  0  0  0  0  0
   -3.5929    1.3566  -19.6219 C   0  0  0  0  0  0  0  0  0  0  0  0
   -3.1926    1.6339  -20.9007 C   0  0  0  0  0  0  0  0  0  0  0  0
   -3.9040    1.0914  -21.9931 C   0  0  0  0  0  0  0  0  0  0  0  0
   -4.9992    0.2897  -21.7858 C   0  0  0  0  0  0  0  0  0  0  0  0
   -5.4438   -0.0122  -20.4728 C   0  0  0  0  0  0  0  0  0  0  0  0
   -5.5363   -0.1161  -22.6363 H   0  0  0  0  0  0  0  0  0  0  0  0
   -3.5851    1.3211  -23.0057 H   0  0  0  0  0  0  0  0  0  0  0  0
   -2.3332    2.2741  -21.0889 H   0  0  0  0  0  0  0  0  0  0  0  0
   -3.0535    1.7692  -18.7728 H   0  0  0  0  0  0  0  0  0  0  0  0
   -4.6032    0.6256  -17.2168 H   0  0  0  0  0  0  0  0  0  0  0  0
   -7.7219   -1.6719  -18.5868 H   0  0  0  0  0  0  0  0  0  0  0  0
   -7.6637   -0.7131  -22.0373 H   0  0  0  0  0  0  0  0  0  0  0  0
   -8.3566   -1.8006  -20.8490 H   0  0  0  0  0  0  0  0  0  0  0  0
   -6.8380   -4.5964  -23.4648 C   0  0  0  0  0  0  0  0  0  0  0  0
   -8.0366   -5.4253  -23.9122 C   0  0  0  0  0  0  0  0  0  0  0  0
   -8.6908   -5.5657  -23.0469 H   0  0  0  0  0  0  0  0  0  0  0  0
   -7.7105   -6.4277  -24.2041 H   0  0  0  0  0  0  0  0  0  0  0  0
   -6.3372   -5.0693  -22.6222 H   0  0  0  0  0  0  0  0  0  0  0  0
   -6.0984   -4.5338  -24.2735 H   0  0  0  0  0  0  0  0  0  0  0  0
   -9.1949   -2.4561  -23.3720 H   0  0  0  0  0  0  0  0  0  0  0  0
   -7.8832   -1.5618  -24.1242 H   0  0  0  0  0  0  0  0  0  0  0  0
   -9.2402   -2.7884  -25.7793 H   0  0  0  0  0  0  0  0  0  0  0  0
   -7.5540   -3.2006  -25.8415 H   0  0  0  0  0  0  0  0  0  0  0  0
   -8.5438   -5.2797  -26.0024 H   0  0  0  0  0  0  0  0  0  0  0  0
  -10.8760   -4.6133  -25.7594 H   0  0  0  0  0  0  0  0  0  0  0  0
  -10.5765   -6.0400  -24.7922 H   0  0  0  0  0  0  0  0  0  0  0  0
  -10.7009   -4.4613  -23.9973 H   0  0  0  0  0  0  0  0  0  0  0  0
  1  2  1  0
  2  3  1  0
  3  4  1  0
  4  5  1  0
  5  6  1  0
  6  7  2  0
  6  8  1  0
  8  9  1  0
  9 10  2  0
 10 11  1  0
 11 12  2  0
 12 13  1  0
 13 14  2  0
 14 15  1  0
 15 16  2  0
 16 17  1  0
 17 18  2  0
 17 19  1  0
 16 20  1  0
 15 21  1  0
 14 22  1  0
 12 23  1  0
 10 24  1  0
  8 25  1  0
  8 26  1  0
  5 27  1  0
 27 28  1  0
 28 29  1  0
 28 30  1  0
 27 31  1  0
 27 32  1  0
  4 33  1  0
  4 34  1  0
  3 35  1  0
  3 36  1  0
  2 37  1  0
  1 38  1  0
  1 39  1  0
  1 40  1  0
 28  2  1  0
 18  9  1  0
 18 13  1  0
M  END
>  <cnnaffinities>  (39) 
[4.65648, 4.63697, 4.63702, 4.58796, 4.53486, 4.53489, 4.6673]

>  <score>  (39) 
4.65648

>  <index>  (39) 
40

>  <Smiles>  (39) 
C(C1(C(C(N(C(=O)C(c2c(nc(c3c(c(c(c(c23)[H])[H])[H])[H])[H])[H])([H])[H])C(C1([H])[H])([H])[H])([H])[H])([H])[H])[H])([H])([H])[H]

>  <h>  (39) 
<NA>

>  <Training>  (39) 
True

>  <Success>  (39) 
True

>  <enamine_searched>  (39) 
False

>  <enamine_id>  (39) 
nan

$$$$

     RDKit          3D

 67 71  0  0  0  0  0  0  0  0999 V2000
   -7.7710    2.9198  -22.0649 C   0  0  0  0  0  0  0  0  0  0  0  0
   -8.8772    2.3496  -22.7933 N   0  0  0  0  0  0  0  0  0  0  0  0
   -8.5857    1.6086  -23.8949 C   0  0  0  0  0  0  0  0  0  0  0  0
   -7.4364    1.3537  -24.2379 O   0  0  0  0  0  0  0  0  0  0  0  0
   -9.7792    1.0657  -24.6720 C   0  0  0  0  0  0  0  0  0  0  0  0
  -10.2196   -0.1701  -24.0474 N   0  0  0  0  0  0  0  0  0  0  0  0
   -9.2712   -1.2704  -23.9280 C   0  0  0  0  0  0  0  0  0  0  0  0
   -9.3336   -1.9795  -22.5384 C   0  0  2  0  0  0  0  0  0  0  0  0
   -8.7379   -1.0332  -21.4602 C   0  0  0  0  0  0  0  0  0  0  0  0
   -9.2881   -0.0790  -20.9440 O   0  0  0  0  0  0  0  0  0  0  0  0
   -7.4402   -1.4276  -21.1892 N   0  0  0  0  0  0  0  0  0  0  0  0
   -6.6655   -0.8257  -20.1645 C   0  0  0  0  0  0  0  0  0  0  0  0
   -6.9816   -1.0372  -18.8433 C   0  0  0  0  0  0  0  0  0  0  0  0
   -6.2674   -0.5495  -17.7975 N   0  0  0  0  0  0  0  0  0  0  0  0
   -5.2085    0.1724  -18.0751 C   0  0  0  0  0  0  0  0  0  0  0  0
   -4.7701    0.4786  -19.3953 C   0  0  0  0  0  0  0  0  0  0  0  0
   -3.6351    1.2984  -19.6404 C   0  0  0  0  0  0  0  0  0  0  0  0
   -3.2687    1.6099  -20.9210 C   0  0  0  0  0  0  0  0  0  0  0  0
   -4.0201    1.1252  -22.0142 C   0  0  0  0  0  0  0  0  0  0  0  0
   -5.1291    0.3358  -21.8034 C   0  0  0  0  0  0  0  0  0  0  0  0
   -5.5230   -0.0232  -20.4840 C   0  0  0  0  0  0  0  0  0  0  0  0
   -5.7519    0.0544  -22.6482 H   0  0  0  0  0  0  0  0  0  0  0  0
   -3.7408    1.4019  -23.0264 H   0  0  0  0  0  0  0  0  0  0  0  0
   -2.4149    2.2564  -21.1062 H   0  0  0  0  0  0  0  0  0  0  0  0
   -3.0850    1.6844  -18.7860 H   0  0  0  0  0  0  0  0  0  0  0  0
   -4.6370    0.5690  -17.2332 H   0  0  0  0  0  0  0  0  0  0  0  0
   -7.8490   -1.6397  -18.5818 H   0  0  0  0  0  0  0  0  0  0  0  0
   -6.9946   -2.5577  -21.9797 C   0  0  0  0  0  0  0  0  0  0  0  0
   -8.3294   -3.1629  -22.4532 C   0  0  2  0  0  0  0  0  0  0  0  0
   -8.2429   -3.9739  -23.7403 C   0  0  0  0  0  0  0  0  0  0  0  0
   -7.2740   -5.4599  -23.5424 S   0  0  0  0  0  0  0  0  0  0  0  0
   -5.8781   -5.0690  -23.4094 O   0  0  0  0  0  0  0  0  0  0  0  0
   -7.9244   -6.2868  -22.5361 O   0  0  0  0  0  0  0  0  0  0  0  0
   -7.4371   -6.2265  -25.0013 N   0  0  0  0  0  0  0  0  0  0  0  0
   -8.6715   -6.9516  -25.2487 C   0  0  0  0  0  0  0  0  0  0  0  0
   -9.5175   -6.3099  -25.5334 H   0  0  0  0  0  0  0  0  0  0  0  0
   -8.4899   -7.6774  -26.0447 H   0  0  0  0  0  0  0  0  0  0  0  0
   -8.9363   -7.4943  -24.3424 H   0  0  0  0  0  0  0  0  0  0  0  0
   -6.7421   -5.6546  -26.1417 C   0  0  0  0  0  0  0  0  0  0  0  0
   -7.2596   -4.7970  -26.5945 H   0  0  0  0  0  0  0  0  0  0  0  0
   -6.6201   -6.4340  -26.8972 H   0  0  0  0  0  0  0  0  0  0  0  0
   -5.7515   -5.3323  -25.8224 H   0  0  0  0  0  0  0  0  0  0  0  0
   -9.2488   -4.2771  -24.0541 H   0  0  0  0  0  0  0  0  0  0  0  0
   -7.7607   -3.3856  -24.5306 H   0  0  0  0  0  0  0  0  0  0  0  0
   -8.6546   -3.8166  -21.6405 H   0  0  0  0  0  0  0  0  0  0  0  0
   -6.3673   -2.2340  -22.8220 H   0  0  0  0  0  0  0  0  0  0  0  0
   -6.4036   -3.2657  -21.3908 H   0  0  0  0  0  0  0  0  0  0  0  0
  -10.8039   -2.3229  -22.2882 C   0  0  0  0  0  0  0  0  0  0  0  0
  -11.2370   -3.4600  -21.5900 C   0  0  0  0  0  0  0  0  0  0  0  0
  -12.5643   -3.5595  -21.2033 C   0  0  0  0  0  0  0  0  0  0  0  0
  -12.9428   -4.5144  -20.3362 F   0  0  0  0  0  0  0  0  0  0  0  0
  -13.5400   -2.6614  -21.6104 C   0  0  0  0  0  0  0  0  0  0  0  0
  -13.1448   -1.5977  -22.3882 C   0  0  0  0  0  0  0  0  0  0  0  0
  -11.7979   -1.4188  -22.7000 C   0  0  0  0  0  0  0  0  0  0  0  0
  -11.4624   -0.1996  -23.4918 C   0  0  0  0  0  0  0  0  0  0  0  0
  -12.2700    0.7162  -23.6293 O   0  0  0  0  0  0  0  0  0  0  0  0
  -13.8545   -0.8642  -22.7585 H   0  0  0  0  0  0  0  0  0  0  0  0
  -14.5692   -2.8043  -21.3059 H   0  0  0  0  0  0  0  0  0  0  0  0
  -10.5512   -4.2391  -21.2871 H   0  0  0  0  0  0  0  0  0  0  0  0
   -9.4801   -1.9970  -24.7221 H   0  0  0  0  0  0  0  0  0  0  0  0
   -8.2736   -0.8533  -24.1002 H   0  0  0  0  0  0  0  0  0  0  0  0
   -9.5110    0.9146  -25.7302 H   0  0  0  0  0  0  0  0  0  0  0  0
  -10.6280    1.7482  -24.6176 H   0  0  0  0  0  0  0  0  0  0  0  0
   -9.7085    2.1294  -22.2625 H   0  0  0  0  0  0  0  0  0  0  0  0
   -8.0982    3.3013  -21.0963 H   0  0  0  0  0  0  0  0  0  0  0  0
   -6.9959    2.1725  -21.8782 H   0  0  0  0  0  0  0  0  0  0  0  0
   -7.3020    3.7214  -22.6473 H   0  0  0  0  0  0  0  0  0  0  0  0
  1  2  1  0
  2  3  1  0
  3  4  2  0
  3  5  1  0
  5  6  1  0
  6  7  1  0
  8  7  1  6
  8  9  1  0
  9 10  2  0
  9 11  1  0
 11 12  1  0
 12 13  2  0
 13 14  1  0
 14 15  2  0
 15 16  1  0
 16 17  2  0
 17 18  1  0
 18 19  2  0
 19 20  1  0
 20 21  2  0
 20 22  1  0
 19 23  1  0
 18 24  1  0
 17 25  1  0
 15 26  1  0
 13 27  1  0
 11 28  1  0
 28 29  1  0
 29 30  1  0
 30 31  1  0
 31 32  2  0
 31 33  2  0
 31 34  1  0
 34 35  1  0
 35 36  1  0
 35 37  1  0
 35 38  1  0
 34 39  1  0
 39 40  1  0
 39 41  1  0
 39 42  1  0
 30 43  1  0
 30 44  1  0
 29 45  1  1
 28 46  1  0
 28 47  1  0
  8 48  1  0
 48 49  2  0
 49 50  1  0
 50 51  1  0
 50 52  2  0
 52 53  1  0
 53 54  2  0
 54 55  1  0
 55 56  2  0
 53 57  1  0
 52 58  1  0
 49 59  1  0
  7 60  1  0
  7 61  1  0
  5 62  1  0
  5 63  1  0
  2 64  1  0
  1 65  1  0
  1 66  1  0
  1 67  1  0
 55  6  1  0
 29  8  1  0
 54 48  1  0
 21 12  1  0
 21 16  1  0
M  END
>  <cnnaffinities>  (40) 
[6.97656]

>  <score>  (40) 
6.97656

>  <index>  (40) 
41

>  <Smiles>  (40) 
C(N(C(=O)C(N1C([C@@]2(C(=O)N(c3c(nc(c4c(c(c(c(c34)[H])[H])[H])[H])[H])[H])C([C@@]2(C(S(=O)(=O)N(C([H])([H])[H])C([H])([H])[H])([H])[H])[H])([H])[H])c2c(c(F)c(c(c2C1=O)[H])[H])[H])([H])[H])([H])[H])[H])([H])([H])[H]

>  <h>  (40) 
<NA>

>  <Training>  (40) 
True

>  <Success>  (40) 
True

>  <enamine_searched>  (40) 
False

>  <enamine_id>  (40) 
nan

$$$$

     RDKit          3D

 67 72  0  0  0  0  0  0  0  0999 V2000
   -7.7571    3.2590  -22.4834 C   0  0  0  0  0  0  0  0  0  0  0  0
   -8.5748    2.7413  -23.5577 N   0  0  0  0  0  0  0  0  0  0  0  0
   -7.9574    2.0504  -24.5490 C   0  0  0  0  0  0  0  0  0  0  0  0
   -6.7421    2.0047  -24.6673 O   0  0  0  0  0  0  0  0  0  0  0  0
   -8.8950    1.2832  -25.4692 C   0  0  0  0  0  0  0  0  0  0  0  0
   -9.5468    0.2170  -24.7244 N   0  0  0  0  0  0  0  0  0  0  0  0
   -8.6978   -0.8896  -24.3219 C   0  0  0  0  0  0  0  0  0  0  0  0
   -9.1026   -1.5670  -22.9740 C   0  0  2  0  0  0  0  0  0  0  0  0
   -8.5707   -0.7206  -21.7848 C   0  0  0  0  0  0  0  0  0  0  0  0
   -9.0429    0.3185  -21.3741 O   0  0  0  0  0  0  0  0  0  0  0  0
   -7.4535   -1.3375  -21.2645 N   0  0  0  0  0  0  0  0  0  0  0  0
   -6.6820   -0.7614  -20.2166 C   0  0  0  0  0  0  0  0  0  0  0  0
   -7.0032   -1.0048  -18.9056 C   0  0  0  0  0  0  0  0  0  0  0  0
   -6.2946   -0.5484  -17.8395 N   0  0  0  0  0  0  0  0  0  0  0  0
   -5.2257    0.1686  -18.0845 C   0  0  0  0  0  0  0  0  0  0  0  0
   -4.7749    0.5043  -19.3944 C   0  0  0  0  0  0  0  0  0  0  0  0
   -3.6147    1.2951  -19.6205 C   0  0  0  0  0  0  0  0  0  0  0  0
   -3.2312    1.6141  -20.8934 C   0  0  0  0  0  0  0  0  0  0  0  0
   -3.9886    1.1716  -22.0011 C   0  0  0  0  0  0  0  0  0  0  0  0
   -5.1201    0.4154  -21.8086 C   0  0  0  0  0  0  0  0  0  0  0  0
   -5.5306    0.0421  -20.4982 C   0  0  0  0  0  0  0  0  0  0  0  0
   -5.7267    0.1270  -22.6632 H   0  0  0  0  0  0  0  0  0  0  0  0
   -3.6823    1.4380  -23.0084 H   0  0  0  0  0  0  0  0  0  0  0  0
   -2.3536    2.2310  -21.0661 H   0  0  0  0  0  0  0  0  0  0  0  0
   -3.0504    1.6500  -18.7622 H   0  0  0  0  0  0  0  0  0  0  0  0
   -4.6577    0.5316  -17.2250 H   0  0  0  0  0  0  0  0  0  0  0  0
   -7.8769   -1.6070  -18.6683 H   0  0  0  0  0  0  0  0  0  0  0  0
   -7.0501   -2.5309  -21.9807 C   0  0  0  0  0  0  0  0  0  0  0  0
   -8.3231   -2.8993  -22.7683 C   0  0  2  0  0  0  0  0  0  0  0  0
   -8.0231   -3.7135  -24.0339 C   0  0  0  0  0  0  0  0  0  0  0  0
   -7.5401   -5.0310  -23.7138 N   0  0  0  0  0  0  0  0  0  0  0  0
   -6.2474   -5.4553  -23.8687 C   0  0  0  0  0  0  0  0  0  0  0  0
   -5.0261   -4.5072  -24.6807 S   0  0  0  0  0  0  0  0  0  0  0  0
   -3.8834   -5.7701  -24.3297 C   0  0  0  0  0  0  0  0  0  0  0  0
   -4.3587   -6.7803  -23.6799 N   0  0  0  0  0  0  0  0  0  0  0  0
   -5.7046   -6.6221  -23.4143 C   0  0  0  0  0  0  0  0  0  0  0  0
   -6.4635   -7.6617  -22.6451 C   0  0  0  0  0  0  0  0  0  0  0  0
   -7.2463   -8.1413  -23.2475 H   0  0  0  0  0  0  0  0  0  0  0  0
   -6.9549   -7.2211  -21.7684 H   0  0  0  0  0  0  0  0  0  0  0  0
   -5.7744   -8.4369  -22.3006 H   0  0  0  0  0  0  0  0  0  0  0  0
   -2.8559   -5.6840  -24.6642 H   0  0  0  0  0  0  0  0  0  0  0  0
   -8.2180   -5.7068  -23.3988 H   0  0  0  0  0  0  0  0  0  0  0  0
   -8.9287   -3.7966  -24.6492 H   0  0  0  0  0  0  0  0  0  0  0  0
   -7.2571   -3.2117  -24.6343 H   0  0  0  0  0  0  0  0  0  0  0  0
   -8.9356   -3.5262  -22.1137 H   0  0  0  0  0  0  0  0  0  0  0  0
   -6.1814   -2.3407  -22.6351 H   0  0  0  0  0  0  0  0  0  0  0  0
   -6.7499   -3.3134  -21.2767 H   0  0  0  0  0  0  0  0  0  0  0  0
  -10.6189   -1.6624  -22.8803 C   0  0  0  0  0  0  0  0  0  0  0  0
  -11.2479   -2.5642  -22.0106 C   0  0  0  0  0  0  0  0  0  0  0  0
  -12.6273   -2.5784  -21.8944 C   0  0  0  0  0  0  0  0  0  0  0  0
  -13.3833   -3.7231  -20.8247 Cl  0  0  0  0  0  0  0  0  0  0  0  0
  -13.4387   -1.6852  -22.5927 C   0  0  0  0  0  0  0  0  0  0  0  0
  -12.8242   -0.7505  -23.3965 C   0  0  0  0  0  0  0  0  0  0  0  0
  -11.4365   -0.7305  -23.5353 C   0  0  0  0  0  0  0  0  0  0  0  0
  -10.8463    0.3761  -24.3516 C   0  0  0  0  0  0  0  0  0  0  0  0
  -11.4940    1.3738  -24.6470 O   0  0  0  0  0  0  0  0  0  0  0  0
  -13.3984    0.0017  -23.9255 H   0  0  0  0  0  0  0  0  0  0  0  0
  -14.5180   -1.7153  -22.4765 H   0  0  0  0  0  0  0  0  0  0  0  0
  -10.6818   -3.2478  -21.3878 H   0  0  0  0  0  0  0  0  0  0  0  0
   -7.6876   -0.4802  -24.2197 H   0  0  0  0  0  0  0  0  0  0  0  0
   -8.6682   -1.6225  -25.1376 H   0  0  0  0  0  0  0  0  0  0  0  0
   -8.2905    0.8850  -26.2884 H   0  0  0  0  0  0  0  0  0  0  0  0
   -9.6928    1.9179  -25.8585 H   0  0  0  0  0  0  0  0  0  0  0  0
   -9.5198    2.4916  -23.3158 H   0  0  0  0  0  0  0  0  0  0  0  0
   -7.4224    2.4365  -21.8331 H   0  0  0  0  0  0  0  0  0  0  0  0
   -6.8747    3.7240  -22.9296 H   0  0  0  0  0  0  0  0  0  0  0  0
   -8.3279    3.9968  -21.9113 H   0  0  0  0  0  0  0  0  0  0  0  0
  1  2  1  0
  2  3  1  0
  3  4  2  0
  3  5  1  0
  5  6  1  0
  6  7  1  0
  8  7  1  6
  8  9  1  0
  9 10  2  0
  9 11  1  0
 11 12  1  0
 12 13  2  0
 13 14  1  0
 14 15  2  0
 15 16  1  0
 16 17  2  0
 17 18  1  0
 18 19  2  0
 19 20  1  0
 20 21  2  0
 20 22  1  0
 19 23  1  0
 18 24  1  0
 17 25  1  0
 15 26  1  0
 13 27  1  0
 11 28  1  0
 28 29  1  0
 29 30  1  0
 30 31  1  0
 31 32  1  0
 32 33  1  0
 33 34  1  0
 34 35  2  0
 35 36  1  0
 36 37  1  0
 37 38  1  0
 37 39  1  0
 37 40  1  0
 34 41  1  0
 31 42  1  0
 30 43  1  0
 30 44  1  0
 29 45  1  1
 28 46  1  0
 28 47  1  0
  8 48  1  0
 48 49  2  0
 49 50  1  0
 50 51  1  0
 50 52  2  0
 52 53  1  0
 53 54  2  0
 54 55  1  0
 55 56  2  0
 53 57  1  0
 52 58  1  0
 49 59  1  0
  7 60  1  0
  7 61  1  0
  5 62  1  0
  5 63  1  0
  2 64  1  0
  1 65  1  0
  1 66  1  0
  1 67  1  0
 55  6  1  0
 29  8  1  0
 36 32  2  0
 54 48  1  0
 21 12  1  0
 21 16  1  0
M  END
>  <cnnaffinities>  (41) 
[6.91782, 6.87805]

>  <score>  (41) 
6.91782

>  <index>  (41) 
43

>  <Smiles>  (41) 
C(N(C(=O)C(N1C([C@@]2(C(=O)N(c3c(nc(c4c(c(c(c(c34)[H])[H])[H])[H])[H])[H])C([C@@]2(C(N(c2sc(nc2C([H])([H])[H])[H])[H])([H])[H])[H])([H])[H])c2c(c(Cl)c(c(c2C1=O)[H])[H])[H])([H])[H])([H])[H])[H])([H])([H])[H]

>  <h>  (41) 
<NA>

>  <Training>  (41) 
True

>  <Success>  (41) 
True

>  <enamine_searched>  (41) 
False

>  <enamine_id>  (41) 
nan

$$$$

     RDKit          3D

 60 64  0  0  0  0  0  0  0  0999 V2000
   -5.0100   -3.8970  -19.2798 C   0  0  0  0  0  0  0  0  0  0  0  0
   -5.5821   -4.5981  -20.4083 N   0  0  0  0  0  0  0  0  0  0  0  0
   -5.9773   -5.8904  -20.3701 C   0  0  0  0  0  0  0  0  0  0  0  0
   -5.6508   -6.6827  -19.4999 O   0  0  0  0  0  0  0  0  0  0  0  0
   -6.9318   -6.3336  -21.4925 C   0  0  0  0  0  0  0  0  0  0  0  0
   -7.1492   -5.3719  -22.5584 N   0  0  0  0  0  0  0  0  0  0  0  0
   -8.1223   -4.2972  -22.3864 C   0  0  0  0  0  0  0  0  0  0  0  0
   -7.6994   -2.9836  -23.1003 C   0  0  2  0  0  0  0  0  0  0  0  0
   -6.6645   -2.2228  -22.2418 C   0  0  0  0  0  0  0  0  0  0  0  0
   -5.4724   -2.4621  -22.1878 O   0  0  0  0  0  0  0  0  0  0  0  0
   -7.2952   -1.2620  -21.4771 N   0  0  0  0  0  0  0  0  0  0  0  0
   -6.6525   -0.6446  -20.3830 C   0  0  0  0  0  0  0  0  0  0  0  0
   -7.1684   -0.7741  -19.1137 C   0  0  0  0  0  0  0  0  0  0  0  0
   -6.5308   -0.3698  -17.9919 N   0  0  0  0  0  0  0  0  0  0  0  0
   -5.3672    0.2209  -18.1390 C   0  0  0  0  0  0  0  0  0  0  0  0
   -4.7771    0.5122  -19.3996 C   0  0  0  0  0  0  0  0  0  0  0  0
   -3.5578    1.2289  -19.4998 C   0  0  0  0  0  0  0  0  0  0  0  0
   -3.0555    1.5797  -20.7226 C   0  0  0  0  0  0  0  0  0  0  0  0
   -3.7385    1.2065  -21.8986 C   0  0  0  0  0  0  0  0  0  0  0  0
   -4.9048    0.4866  -21.8329 C   0  0  0  0  0  0  0  0  0  0  0  0
   -5.4413    0.0989  -20.5711 C   0  0  0  0  0  0  0  0  0  0  0  0
   -5.4227    0.2093  -22.7443 H   0  0  0  0  0  0  0  0  0  0  0  0
   -3.3460    1.5046  -22.8647 H   0  0  0  0  0  0  0  0  0  0  0  0
   -2.1408    2.1603  -20.7968 H   0  0  0  0  0  0  0  0  0  0  0  0
   -3.0618    1.5243  -18.5822 H   0  0  0  0  0  0  0  0  0  0  0  0
   -4.8450    0.5292  -17.2334 H   0  0  0  0  0  0  0  0  0  0  0  0
   -8.1285   -1.2627  -18.9442 H   0  0  0  0  0  0  0  0  0  0  0  0
   -8.7468   -1.3391  -21.6377 C   0  0  0  0  0  0  0  0  0  0  0  0
   -8.8557   -1.9335  -23.0507 C   0  0  2  0  0  0  0  0  0  0  0  0
  -10.2484   -2.4085  -23.4321 C   0  0  0  0  0  0  0  0  0  0  0  0
  -10.8707   -2.9846  -22.3044 O   0  0  0  0  0  0  0  0  0  0  0  0
  -12.2571   -3.1389  -22.4504 C   0  0  0  0  0  0  0  0  0  0  0  0
  -12.5082   -3.9882  -23.1010 H   0  0  0  0  0  0  0  0  0  0  0  0
  -12.6701   -3.3157  -21.4554 H   0  0  0  0  0  0  0  0  0  0  0  0
  -12.7104   -2.2249  -22.8634 H   0  0  0  0  0  0  0  0  0  0  0  0
  -10.8496   -1.5543  -23.7837 H   0  0  0  0  0  0  0  0  0  0  0  0
  -10.1834   -3.1326  -24.2652 H   0  0  0  0  0  0  0  0  0  0  0  0
   -8.5690   -1.1335  -23.7416 H   0  0  0  0  0  0  0  0  0  0  0  0
   -9.2021   -2.0121  -20.9000 H   0  0  0  0  0  0  0  0  0  0  0  0
   -9.2044   -0.3529  -21.5418 H   0  0  0  0  0  0  0  0  0  0  0  0
   -7.1626   -3.3235  -24.4773 C   0  0  0  0  0  0  0  0  0  0  0  0
   -6.9632   -2.3146  -25.4342 C   0  0  0  0  0  0  0  0  0  0  0  0
   -6.4861   -2.6324  -26.6962 C   0  0  0  0  0  0  0  0  0  0  0  0
   -6.2405   -1.3611  -27.8637 Cl  0  0  0  0  0  0  0  0  0  0  0  0
   -6.1647   -3.9410  -27.0529 C   0  0  0  0  0  0  0  0  0  0  0  0
   -6.3183   -4.9308  -26.1026 C   0  0  0  0  0  0  0  0  0  0  0  0
   -6.7813   -4.6294  -24.8235 C   0  0  0  0  0  0  0  0  0  0  0  0
   -6.7873   -5.7500  -23.8314 C   0  0  0  0  0  0  0  0  0  0  0  0
   -6.4407   -6.8854  -24.1154 O   0  0  0  0  0  0  0  0  0  0  0  0
   -6.0660   -5.9623  -26.3144 H   0  0  0  0  0  0  0  0  0  0  0  0
   -5.7923   -4.1573  -28.0504 H   0  0  0  0  0  0  0  0  0  0  0  0
   -7.1738   -1.2756  -25.1982 H   0  0  0  0  0  0  0  0  0  0  0  0
   -8.2422   -4.0925  -21.3247 H   0  0  0  0  0  0  0  0  0  0  0  0
   -9.0993   -4.6045  -22.7817 H   0  0  0  0  0  0  0  0  0  0  0  0
   -6.5076   -7.2302  -21.9492 H   0  0  0  0  0  0  0  0  0  0  0  0
   -7.8845   -6.6403  -21.0393 H   0  0  0  0  0  0  0  0  0  0  0  0
   -5.5480   -4.1190  -21.3052 H   0  0  0  0  0  0  0  0  0  0  0  0
   -4.0158   -3.5030  -19.5244 H   0  0  0  0  0  0  0  0  0  0  0  0
   -5.6321   -3.0415  -18.9870 H   0  0  0  0  0  0  0  0  0  0  0  0
   -4.9715   -4.5758  -18.4270 H   0  0  0  0  0  0  0  0  0  0  0  0
  1  2  1  0
  2  3  1  0
  3  4  2  0
  3  5  1  0
  5  6  1  0
  6  7  1  0
  8  7  1  1
  8  9  1  0
  9 10  2  0
  9 11  1  0
 11 12  1  0
 12 13  2  0
 13 14  1  0
 14 15  2  0
 15 16  1  0
 16 17  2  0
 17 18  1  0
 18 19  2  0
 19 20  1  0
 20 21  2  0
 20 22  1  0
 19 23  1  0
 18 24  1  0
 17 25  1  0
 15 26  1  0
 13 27  1  0
 11 28  1  0
 28 29  1  0
 29 30  1  0
 30 31  1  0
 31 32  1  0
 32 33  1  0
 32 34  1  0
 32 35  1  0
 30 36  1  0
 30 37  1  0
 29 38  1  6
 28 39  1  0
 28 40  1  0
  8 41  1  0
 41 42  2  0
 42 43  1  0
 43 44  1  0
 43 45  2  0
 45 46  1  0
 46 47  2  0
 47 48  1  0
 48 49  2  0
 46 50  1  0
 45 51  1  0
 42 52  1  0
  7 53  1  0
  7 54  1  0
  5 55  1  0
  5 56  1  0
  2 57  1  0
  1 58  1  0
  1 59  1  0
  1 60  1  0
 48  6  1  0
 29  8  1  0
 47 41  1  0
 21 12  1  0
 21 16  1  0
M  END
>  <cnnaffinities>  (42) 
[6.22896]

>  <score>  (42) 
6.22896

>  <index>  (42) 
44

>  <Smiles>  (42) 
C(N(C(=O)C(N1C([C@@]2(C(=O)N(c3c(nc(c4c(c(c(c(c34)[H])[H])[H])[H])[H])[H])C([C@@]2(C(OC([H])([H])[H])([H])[H])[H])([H])[H])c2c(c(Cl)c(c(c2C1=O)[H])[H])[H])([H])[H])([H])[H])[H])([H])([H])[H]

>  <h>  (42) 
<NA>

>  <Training>  (42) 
True

>  <Success>  (42) 
True

>  <enamine_searched>  (42) 
False

>  <enamine_id>  (42) 
nan

$$$$

     RDKit          3D

 66 71  0  0  0  0  0  0  0  0999 V2000
   -7.6990    3.1456  -22.4758 C   0  0  0  0  0  0  0  0  0  0  0  0
   -8.5810    2.6551  -23.5111 N   0  0  0  0  0  0  0  0  0  0  0  0
   -8.0307    2.0009  -24.5585 C   0  0  0  0  0  0  0  0  0  0  0  0
   -6.8258    1.9518  -24.7565 O   0  0  0  0  0  0  0  0  0  0  0  0
   -9.0348    1.2518  -25.4378 C   0  0  0  0  0  0  0  0  0  0  0  0
   -9.6628    0.1878  -24.6671 N   0  0  0  0  0  0  0  0  0  0  0  0
   -8.7798   -0.8890  -24.2658 C   0  0  0  0  0  0  0  0  0  0  0  0
   -9.1596   -1.5887  -22.9227 C   0  0  2  0  0  0  0  0  0  0  0  0
   -8.6536   -0.7442  -21.7197 C   0  0  0  0  0  0  0  0  0  0  0  0
   -9.1901    0.2508  -21.2709 O   0  0  0  0  0  0  0  0  0  0  0  0
   -7.4860   -1.3003  -21.2425 N   0  0  0  0  0  0  0  0  0  0  0  0
   -6.7100   -0.7264  -20.1963 C   0  0  0  0  0  0  0  0  0  0  0  0
   -7.0176   -0.9758  -18.8831 C   0  0  0  0  0  0  0  0  0  0  0  0
   -6.2929   -0.5329  -17.8224 N   0  0  0  0  0  0  0  0  0  0  0  0
   -5.2199    0.1757  -18.0745 C   0  0  0  0  0  0  0  0  0  0  0  0
   -4.7780    0.5126  -19.3858 C   0  0  0  0  0  0  0  0  0  0  0  0
   -3.6130    1.2945  -19.6169 C   0  0  0  0  0  0  0  0  0  0  0  0
   -3.2317    1.6100  -20.8921 C   0  0  0  0  0  0  0  0  0  0  0  0
   -3.9977    1.1716  -21.9953 C   0  0  0  0  0  0  0  0  0  0  0  0
   -5.1356    0.4268  -21.7955 C   0  0  0  0  0  0  0  0  0  0  0  0
   -5.5480    0.0608  -20.4848 C   0  0  0  0  0  0  0  0  0  0  0  0
   -5.7539    0.1509  -22.6457 H   0  0  0  0  0  0  0  0  0  0  0  0
   -3.6942    1.4312  -23.0057 H   0  0  0  0  0  0  0  0  0  0  0  0
   -2.3499    2.2198  -21.0677 H   0  0  0  0  0  0  0  0  0  0  0  0
   -3.0412    1.6454  -18.7615 H   0  0  0  0  0  0  0  0  0  0  0  0
   -4.6396    0.5283  -17.2188 H   0  0  0  0  0  0  0  0  0  0  0  0
   -7.8894   -1.5780  -18.6378 H   0  0  0  0  0  0  0  0  0  0  0  0
   -7.0460   -2.4642  -21.9870 C   0  0  0  0  0  0  0  0  0  0  0  0
   -8.3169   -2.8901  -22.7478 C   0  0  2  0  0  0  0  0  0  0  0  0
   -8.0232   -3.6816  -24.0371 C   0  0  0  0  0  0  0  0  0  0  0  0
   -7.4582   -5.0551  -23.7937 C   0  0  0  0  0  0  0  0  0  0  0  0
   -6.0824   -5.2636  -23.6855 C   0  0  0  0  0  0  0  0  0  0  0  0
   -5.5798   -6.5315  -23.4098 C   0  0  0  0  0  0  0  0  0  0  0  0
   -6.4523   -7.6018  -23.2277 C   0  0  0  0  0  0  0  0  0  0  0  0
   -7.8237   -7.4102  -23.3638 C   0  0  0  0  0  0  0  0  0  0  0  0
   -8.3183   -6.1434  -23.6602 C   0  0  0  0  0  0  0  0  0  0  0  0
   -9.3854   -5.9808  -23.8053 H   0  0  0  0  0  0  0  0  0  0  0  0
   -8.5065   -8.2485  -23.2442 H   0  0  0  0  0  0  0  0  0  0  0  0
   -6.0580   -8.5872  -22.9908 H   0  0  0  0  0  0  0  0  0  0  0  0
   -4.5057   -6.6876  -23.3427 H   0  0  0  0  0  0  0  0  0  0  0  0
   -5.4000   -4.4251  -23.8254 H   0  0  0  0  0  0  0  0  0  0  0  0
   -8.9568   -3.7730  -24.6084 H   0  0  0  0  0  0  0  0  0  0  0  0
   -7.3156   -3.1195  -24.6606 H   0  0  0  0  0  0  0  0  0  0  0  0
   -8.8829   -3.5411  -22.0761 H   0  0  0  0  0  0  0  0  0  0  0  0
   -6.6889   -3.2434  -21.3046 H   0  0  0  0  0  0  0  0  0  0  0  0
   -6.2074   -2.2233  -22.6640 H   0  0  0  0  0  0  0  0  0  0  0  0
  -10.6753   -1.7367  -22.8326 C   0  0  0  0  0  0  0  0  0  0  0  0
  -11.2832   -2.6845  -21.9947 C   0  0  0  0  0  0  0  0  0  0  0  0
  -12.6625   -2.7064  -21.8457 C   0  0  0  0  0  0  0  0  0  0  0  0
  -13.3972   -3.8811  -20.7931 Cl  0  0  0  0  0  0  0  0  0  0  0  0
  -13.4932   -1.7929  -22.4914 C   0  0  0  0  0  0  0  0  0  0  0  0
  -12.9025   -0.8333  -23.2829 C   0  0  0  0  0  0  0  0  0  0  0  0
  -11.5168   -0.7983  -23.4501 C   0  0  0  0  0  0  0  0  0  0  0  0
  -10.9575    0.3265  -24.2669 C   0  0  0  0  0  0  0  0  0  0  0  0
  -11.6238    1.3165  -24.5450 O   0  0  0  0  0  0  0  0  0  0  0  0
  -13.4949   -0.0723  -23.7780 H   0  0  0  0  0  0  0  0  0  0  0  0
  -14.5708   -1.8300  -22.3491 H   0  0  0  0  0  0  0  0  0  0  0  0
  -10.7022   -3.3973  -21.4192 H   0  0  0  0  0  0  0  0  0  0  0  0
   -7.7876   -0.4409  -24.1597 H   0  0  0  0  0  0  0  0  0  0  0  0
   -8.7210   -1.6107  -25.0886 H   0  0  0  0  0  0  0  0  0  0  0  0
   -8.4906    0.8601  -26.3028 H   0  0  0  0  0  0  0  0  0  0  0  0
   -9.8461    1.9048  -25.7648 H   0  0  0  0  0  0  0  0  0  0  0  0
   -9.5040    2.3588  -23.2101 H   0  0  0  0  0  0  0  0  0  0  0  0
   -8.2718    3.7479  -21.7677 H   0  0  0  0  0  0  0  0  0  0  0  0
   -6.9036    3.7413  -22.9379 H   0  0  0  0  0  0  0  0  0  0  0  0
   -7.2244    2.2998  -21.9606 H   0  0  0  0  0  0  0  0  0  0  0  0
  1  2  1  0
  2  3  1  0
  3  4  2  0
  3  5  1  0
  5  6  1  0
  6  7  1  0
  8  7  1  6
  8  9  1  0
  9 10  2  0
  9 11  1  0
 11 12  1  0
 12 13  2  0
 13 14  1  0
 14 15  2  0
 15 16  1  0
 16 17  2  0
 17 18  1  0
 18 19  2  0
 19 20  1  0
 20 21  2  0
 20 22  1  0
 19 23  1  0
 18 24  1  0
 17 25  1  0
 15 26  1  0
 13 27  1  0
 11 28  1  0
 28 29  1  0
 29 30  1  0
 30 31  1  0
 31 32  2  0
 32 33  1  0
 33 34  2  0
 34 35  1  0
 35 36  2  0
 36 37  1  0
 35 38  1  0
 34 39  1  0
 33 40  1  0
 32 41  1  0
 30 42  1  0
 30 43  1  0
 29 44  1  1
 28 45  1  0
 28 46  1  0
  8 47  1  0
 47 48  2  0
 48 49  1  0
 49 50  1  0
 49 51  2  0
 51 52  1  0
 52 53  2  0
 53 54  1  0
 54 55  2  0
 52 56  1  0
 51 57  1  0
 48 58  1  0
  7 59  1  0
  7 60  1  0
  5 61  1  0
  5 62  1  0
  2 63  1  0
  1 64  1  0
  1 65  1  0
  1 66  1  0
 54  6  1  0
 29  8  1  0
 36 31  1  0
 53 47  1  0
 21 12  1  0
 21 16  1  0
M  END
>  <cnnaffinities>  (43) 
[6.52857, 6.53544]

>  <score>  (43) 
6.52857

>  <index>  (43) 
45

>  <Smiles>  (43) 
C(N(C(=O)C(N1C([C@@]2(C(=O)N(c3c(nc(c4c(c(c(c(c34)[H])[H])[H])[H])[H])[H])C([C@@]2(C(c2c(c(c(c(c2[H])[H])[H])[H])[H])([H])[H])[H])([H])[H])c2c(c(Cl)c(c(c2C1=O)[H])[H])[H])([H])[H])([H])[H])[H])([H])([H])[H]

>  <h>  (43) 
<NA>

>  <Training>  (43) 
True

>  <Success>  (43) 
True

>  <enamine_searched>  (43) 
False

>  <enamine_id>  (43) 
nan

$$$$

     RDKit          3D

 50 54  0  0  0  0  0  0  0  0999 V2000
  -10.4124   -0.9962  -23.3778 C   0  0  0  0  0  0  0  0  0  0  0  0
   -8.9847   -1.3768  -22.9879 C   0  0  1  0  0  0  0  0  0  0  0  0
   -8.3983   -0.4633  -21.8974 C   0  0  0  0  0  0  0  0  0  0  0  0
   -7.4085   -1.3044  -21.2448 N   0  0  0  0  0  0  0  0  0  0  0  0
   -6.5929   -0.8360  -20.1857 C   0  0  0  0  0  0  0  0  0  0  0  0
   -6.9082   -1.0999  -18.8768 C   0  0  0  0  0  0  0  0  0  0  0  0
   -6.2360   -0.5818  -17.8155 N   0  0  0  0  0  0  0  0  0  0  0  0
   -5.2070    0.1926  -18.0670 C   0  0  0  0  0  0  0  0  0  0  0  0
   -4.7511    0.5203  -19.3791 C   0  0  0  0  0  0  0  0  0  0  0  0
   -3.6152    1.3403  -19.6181 C   0  0  0  0  0  0  0  0  0  0  0  0
   -3.2176    1.6110  -20.9003 C   0  0  0  0  0  0  0  0  0  0  0  0
   -3.9281    1.0781  -21.9990 C   0  0  0  0  0  0  0  0  0  0  0  0
   -5.0268    0.2820  -21.7939 C   0  0  0  0  0  0  0  0  0  0  0  0
   -5.4659   -0.0058  -20.4761 C   0  0  0  0  0  0  0  0  0  0  0  0
   -5.5686   -0.1468  -22.6291 H   0  0  0  0  0  0  0  0  0  0  0  0
   -3.6046    1.3019  -23.0107 H   0  0  0  0  0  0  0  0  0  0  0  0
   -2.3499    2.2393  -21.0851 H   0  0  0  0  0  0  0  0  0  0  0  0
   -3.0651    1.7331  -18.7673 H   0  0  0  0  0  0  0  0  0  0  0  0
   -4.6759    0.6056  -17.2076 H   0  0  0  0  0  0  0  0  0  0  0  0
   -7.7492   -1.7470  -18.6313 H   0  0  0  0  0  0  0  0  0  0  0  0
   -7.5913   -2.6503  -21.4725 C   0  0  0  0  0  0  0  0  0  0  0  0
   -6.9013   -3.5233  -20.9893 O   0  0  0  0  0  0  0  0  0  0  0  0
   -8.7871   -2.8330  -22.4224 C   0  0  1  0  0  0  0  0  0  0  0  0
   -9.9866   -3.2743  -21.5472 C   0  0  0  0  0  0  0  0  0  0  0  0
  -11.1511   -3.6674  -22.3339 N   0  0  0  0  0  0  0  0  0  0  0  0
  -12.5141   -3.4577  -21.8492 C   0  0  0  0  0  0  0  0  0  0  0  0
  -13.3530   -2.6242  -22.7341 C   0  0  0  0  0  0  0  0  0  0  0  0
  -14.0503   -1.9950  -23.4068 N   0  0  0  0  0  0  0  0  0  0  0  0
  -12.4855   -2.9814  -20.8684 H   0  0  0  0  0  0  0  0  0  0  0  0
  -13.0266   -4.4153  -21.7490 H   0  0  0  0  0  0  0  0  0  0  0  0
  -10.9953   -4.5128  -23.4059 C   0  0  0  0  0  0  0  0  0  0  0  0
  -11.9472   -5.0371  -23.9578 O   0  0  0  0  0  0  0  0  0  0  0  0
   -9.5892   -4.7133  -23.9098 C   0  0  0  0  0  0  0  0  0  0  0  0
   -9.3553   -5.6973  -24.8762 C   0  0  0  0  0  0  0  0  0  0  0  0
   -8.0911   -5.9204  -25.3923 C   0  0  0  0  0  0  0  0  0  0  0  0
   -7.0584   -5.1166  -24.9245 C   0  0  0  0  0  0  0  0  0  0  0  0
   -5.8282   -5.3143  -25.4232 F   0  0  0  0  0  0  0  0  0  0  0  0
   -7.2501   -4.1221  -23.9843 C   0  0  0  0  0  0  0  0  0  0  0  0
   -8.5315   -3.9180  -23.4496 C   0  0  0  0  0  0  0  0  0  0  0  0
   -6.3921   -3.5318  -23.6740 H   0  0  0  0  0  0  0  0  0  0  0  0
   -7.9009   -6.6879  -26.1422 H   0  0  0  0  0  0  0  0  0  0  0  0
  -10.2025   -6.2636  -25.2426 H   0  0  0  0  0  0  0  0  0  0  0  0
   -9.6518   -4.0944  -20.9000 H   0  0  0  0  0  0  0  0  0  0  0  0
  -10.2475   -2.4372  -20.8968 H   0  0  0  0  0  0  0  0  0  0  0  0
   -9.1674   -0.1348  -21.1810 H   0  0  0  0  0  0  0  0  0  0  0  0
   -7.9402    0.4472  -22.2964 H   0  0  0  0  0  0  0  0  0  0  0  0
   -8.3408   -1.3066  -23.8731 H   0  0  0  0  0  0  0  0  0  0  0  0
  -10.4598   -0.0043  -23.8359 H   0  0  0  0  0  0  0  0  0  0  0  0
  -11.0715   -0.9747  -22.5025 H   0  0  0  0  0  0  0  0  0  0  0  0
  -10.8245   -1.7231  -24.0832 H   0  0  0  0  0  0  0  0  0  0  0  0
  1  2  1  0
  2  3  1  0
  3  4  1  0
  4  5  1  0
  5  6  2  0
  6  7  1  0
  7  8  2  0
  8  9  1  0
  9 10  2  0
 10 11  1  0
 11 12  2  0
 12 13  1  0
 13 14  2  0
 13 15  1  0
 12 16  1  0
 11 17  1  0
 10 18  1  0
  8 19  1  0
  6 20  1  0
  4 21  1  0
 21 22  2  0
 21 23  1  0
 23 24  1  1
 24 25  1  0
 25 26  1  0
 26 27  1  0
 27 28  3  0
 26 29  1  0
 26 30  1  0
 25 31  1  0
 31 32  2  0
 31 33  1  0
 33 34  2  0
 34 35  1  0
 35 36  2  0
 36 37  1  0
 36 38  1  0
 38 39  2  0
 38 40  1  0
 35 41  1  0
 34 42  1  0
 24 43  1  0
 24 44  1  0
  3 45  1  0
  3 46  1  0
  2 47  1  6
  1 48  1  0
  1 49  1  0
  1 50  1  0
 23  2  1  0
 39 33  1  0
 14  5  1  0
 39 23  1  0
 14  9  1  0
M  END
>  <cnnaffinities>  (44) 
[6.28556]

>  <score>  (44) 
6.28556

>  <index>  (44) 
46

>  <Smiles>  (44) 
C([C@]1(C(N(c2c(nc(c3c(c(c(c(c23)[H])[H])[H])[H])[H])[H])C(=O)[C@]21C(N(C(C#N)([H])[H])C(=O)c1c(c(c(F)c(c21)[H])[H])[H])([H])[H])([H])[H])[H])([H])([H])[H]

>  <h>  (44) 
<NA>

>  <Training>  (44) 
True

>  <Success>  (44) 
True

>  <enamine_searched>  (44) 
False

>  <enamine_id>  (44) 
nan

$$$$

     RDKit          3D

 58 63  0  0  0  0  0  0  0  0999 V2000
   -9.0694    0.4036  -21.0493 O   0  0  0  0  0  0  0  0  0  0  0  0
   -8.3148   -0.1998  -21.7956 C   0  0  0  0  0  0  0  0  0  0  0  0
   -7.4903   -1.3659  -21.2784 C   0  0  0  0  0  0  0  0  0  0  0  0
   -6.6002   -0.8566  -20.1744 C   0  0  0  0  0  0  0  0  0  0  0  0
   -6.9194   -1.0610  -18.8593 C   0  0  0  0  0  0  0  0  0  0  0  0
   -6.2359   -0.5572  -17.7981 N   0  0  0  0  0  0  0  0  0  0  0  0
   -5.1956    0.1905  -18.0721 C   0  0  0  0  0  0  0  0  0  0  0  0
   -4.7486    0.4971  -19.3856 C   0  0  0  0  0  0  0  0  0  0  0  0
   -3.6275    1.3358  -19.6189 C   0  0  0  0  0  0  0  0  0  0  0  0
   -3.2410    1.6432  -20.8934 C   0  0  0  0  0  0  0  0  0  0  0  0
   -3.9525    1.1145  -21.9925 C   0  0  0  0  0  0  0  0  0  0  0  0
   -5.0347    0.2902  -21.7915 C   0  0  0  0  0  0  0  0  0  0  0  0
   -5.4720   -0.0377  -20.4775 C   0  0  0  0  0  0  0  0  0  0  0  0
   -5.5723   -0.0810  -22.6579 H   0  0  0  0  0  0  0  0  0  0  0  0
   -3.6462    1.3773  -23.0033 H   0  0  0  0  0  0  0  0  0  0  0  0
   -2.3940    2.3004  -21.0713 H   0  0  0  0  0  0  0  0  0  0  0  0
   -3.0921    1.7363  -18.7614 H   0  0  0  0  0  0  0  0  0  0  0  0
   -4.6476    0.6097  -17.2262 H   0  0  0  0  0  0  0  0  0  0  0  0
   -7.7862   -1.6701  -18.6019 H   0  0  0  0  0  0  0  0  0  0  0  0
   -8.1845   -2.1264  -20.9083 H   0  0  0  0  0  0  0  0  0  0  0  0
   -6.9066   -1.8062  -22.0871 H   0  0  0  0  0  0  0  0  0  0  0  0
   -8.1122    0.1847  -23.1215 N   0  0  0  0  0  0  0  0  0  0  0  0
   -7.9794   -0.7522  -24.2297 C   0  0  0  0  0  0  0  0  0  0  0  0
   -9.0228   -1.8489  -24.1467 C   0  0  0  0  0  0  0  0  0  0  0  0
  -10.3686   -1.5120  -23.9718 C   0  0  0  0  0  0  0  0  0  0  0  0
  -11.3094   -2.4981  -23.7076 C   0  0  0  0  0  0  0  0  0  0  0  0
  -10.9223   -3.8386  -23.6777 C   0  0  0  0  0  0  0  0  0  0  0  0
   -9.6032   -4.1726  -23.9594 C   0  0  0  0  0  0  0  0  0  0  0  0
   -9.1346   -5.8479  -24.1193 Cl  0  0  0  0  0  0  0  0  0  0  0  0
   -8.6319   -3.1874  -24.1241 C   0  0  0  0  0  0  0  0  0  0  0  0
   -7.5835   -3.4695  -24.2339 H   0  0  0  0  0  0  0  0  0  0  0  0
  -11.6365   -4.6150  -23.4216 H   0  0  0  0  0  0  0  0  0  0  0  0
  -12.3483   -2.2148  -23.5402 H   0  0  0  0  0  0  0  0  0  0  0  0
  -10.6939   -0.4698  -24.0019 H   0  0  0  0  0  0  0  0  0  0  0  0
   -6.9706   -1.1838  -24.2228 H   0  0  0  0  0  0  0  0  0  0  0  0
   -8.0761   -0.1822  -25.1590 H   0  0  0  0  0  0  0  0  0  0  0  0
   -8.2726    1.5776  -23.3923 C   0  0  2  0  0  0  0  0  0  0  0  0
   -9.6557    2.1192  -23.7691 C   0  0  0  0  0  0  0  0  0  0  0  0
   -9.3067    3.5770  -23.9342 N   0  0  1  0  0  4  0  0  0  0  0  0
  -10.1556    4.5382  -23.2322 C   0  0  0  0  0  0  0  0  0  0  0  0
  -10.0733    5.9660  -23.6610 C   0  0  0  0  0  0  0  0  0  0  0  0
  -11.2944    5.1524  -23.9812 C   0  0  0  0  0  0  0  0  0  0  0  0
  -11.4324    4.8342  -25.0090 H   0  0  0  0  0  0  0  0  0  0  0  0
  -12.2080    5.3578  -23.4415 H   0  0  0  0  0  0  0  0  0  0  0  0
  -10.1398    6.7282  -22.8984 H   0  0  0  0  0  0  0  0  0  0  0  0
   -9.4005    6.1943  -24.4823 H   0  0  0  0  0  0  0  0  0  0  0  0
  -10.2992    4.3269  -22.1783 H   0  0  0  0  0  0  0  0  0  0  0  0
   -7.8357    3.5379  -23.5232 C   0  0  2  0  0  0  0  0  0  0  0  0
   -7.3735    2.3510  -24.3815 C   0  0  0  0  0  0  0  0  0  0  0  0
   -7.7037    2.3776  -25.4223 H   0  0  0  0  0  0  0  0  0  0  0  0
   -6.3176    2.1049  -24.2878 H   0  0  0  0  0  0  0  0  0  0  0  0
   -7.8147    2.5939  -22.3308 C   0  0  0  0  0  0  0  0  0  0  0  0
   -6.8216    2.3501  -21.9620 H   0  0  0  0  0  0  0  0  0  0  0  0
   -8.4990    2.7597  -21.5049 H   0  0  0  0  0  0  0  0  0  0  0  0
   -7.3554    4.5041  -23.4909 H   0  0  0  0  0  0  0  0  0  0  0  0
   -9.3280    3.8245  -24.9443 H   0  0  0  0  0  0  0  0  0  0  0  0
  -10.0384    1.7246  -24.7100 H   0  0  0  0  0  0  0  0  0  0  0  0
  -10.3918    1.9845  -22.9774 H   0  0  0  0  0  0  0  0  0  0  0  0
  1  2  2  0
  2  3  1  0
  3  4  1  0
  4  5  2  0
  5  6  1  0
  6  7  2  0
  7  8  1  0
  8  9  2  0
  9 10  1  0
 10 11  2  0
 11 12  1  0
 12 13  2  0
 12 14  1  0
 11 15  1  0
 10 16  1  0
  9 17  1  0
  7 18  1  0
  5 19  1  0
  3 20  1  0
  3 21  1  0
  2 22  1  0
 22 23  1  0
 23 24  1  0
 24 25  2  0
 25 26  1  0
 26 27  2  0
 27 28  1  0
 28 29  1  0
 28 30  2  0
 30 31  1  0
 27 32  1  0
 26 33  1  0
 25 34  1  0
 23 35  1  0
 23 36  1  0
 37 22  1  1
 37 38  1  0
 38 39  1  0
 39 40  1  0
 40 41  1  0
 41 42  1  0
 42 43  1  0
 42 44  1  0
 41 45  1  0
 41 46  1  0
 40 47  1  0
 39 48  1  0
 48 49  1  0
 49 50  1  0
 49 51  1  0
 48 52  1  0
 52 53  1  0
 52 54  1  0
 48 55  1  1
 39 56  1  6
 38 57  1  0
 38 58  1  0
 13  4  1  0
 30 24  1  0
 49 37  1  0
 13  8  1  0
 52 37  1  0
 42 40  1  0
M  CHG  1  39   1
M  END
>  <cnnaffinities>  (45) 
[5.74067, 6.02698]

>  <score>  (45) 
5.74067

>  <index>  (45) 
47

>  <Smiles>  (45) 
O=C(C(c1c(nc(c2c(c(c(c(c12)[H])[H])[H])[H])[H])[H])([H])[H])N(C(c1c(c(c(c(Cl)c1[H])[H])[H])[H])([H])[H])[C@]12C([N@@+](C3(C(C3([H])[H])([H])[H])[H])([C@](C1([H])[H])(C2([H])[H])[H])[H])([H])[H]

>  <h>  (45) 
<NA>

>  <Training>  (45) 
True

>  <Success>  (45) 
True

>  <enamine_searched>  (45) 
False

>  <enamine_id>  (45) 
nan

$$$$

     RDKit          3D

 46 48  0  0  0  0  0  0  0  0999 V2000
   -8.3319   -6.6035  -26.1117 C   0  0  0  0  0  0  0  0  0  0  0  0
   -9.4354   -6.4624  -25.0636 C   0  0  0  0  0  0  0  0  0  0  0  0
  -10.7875   -6.3563  -25.7648 C   0  0  0  0  0  0  0  0  0  0  0  0
  -11.6187   -6.2728  -25.0567 H   0  0  0  0  0  0  0  0  0  0  0  0
  -10.9540   -7.2550  -26.3713 H   0  0  0  0  0  0  0  0  0  0  0  0
  -10.8167   -5.4873  -26.4329 H   0  0  0  0  0  0  0  0  0  0  0  0
   -9.2224   -5.3765  -23.9948 C   0  0  0  0  0  0  0  0  0  0  0  0
   -9.0241   -3.9326  -24.4847 C   0  0  0  0  0  0  0  0  0  0  0  0
   -8.7266   -3.0822  -23.2513 C   0  0  0  0  0  0  0  0  0  0  0  0
   -7.4443   -3.4936  -22.6618 N   0  0  0  0  0  0  0  0  0  0  0  0
   -6.6973   -2.7420  -21.8042 C   0  0  0  0  0  0  0  0  0  0  0  0
   -5.5605   -3.0580  -21.4785 O   0  0  0  0  0  0  0  0  0  0  0  0
   -7.3754   -1.4914  -21.2665 C   0  0  0  0  0  0  0  0  0  0  0  0
   -6.5832   -0.8526  -20.1773 C   0  0  0  0  0  0  0  0  0  0  0  0
   -6.9104   -1.0633  -18.8642 C   0  0  0  0  0  0  0  0  0  0  0  0
   -6.2384   -0.5530  -17.7973 N   0  0  0  0  0  0  0  0  0  0  0  0
   -5.1919    0.1857  -18.0685 C   0  0  0  0  0  0  0  0  0  0  0  0
   -4.7309    0.4796  -19.3804 C   0  0  0  0  0  0  0  0  0  0  0  0
   -3.6085    1.3082  -19.6183 C   0  0  0  0  0  0  0  0  0  0  0  0
   -3.2117    1.5971  -20.8960 C   0  0  0  0  0  0  0  0  0  0  0  0
   -3.9173    1.0603  -21.9960 C   0  0  0  0  0  0  0  0  0  0  0  0
   -5.0041    0.2483  -21.7948 C   0  0  0  0  0  0  0  0  0  0  0  0
   -5.4444   -0.0574  -20.4777 C   0  0  0  0  0  0  0  0  0  0  0  0
   -5.5378   -0.1544  -22.6517 H   0  0  0  0  0  0  0  0  0  0  0  0
   -3.6042    1.3122  -23.0065 H   0  0  0  0  0  0  0  0  0  0  0  0
   -2.3634    2.2504  -21.0773 H   0  0  0  0  0  0  0  0  0  0  0  0
   -3.0816    1.7245  -18.7641 H   0  0  0  0  0  0  0  0  0  0  0  0
   -4.6431    0.6097  -17.2238 H   0  0  0  0  0  0  0  0  0  0  0  0
   -7.7725   -1.6805  -18.6146 H   0  0  0  0  0  0  0  0  0  0  0  0
   -8.3637   -1.7926  -20.8928 H   0  0  0  0  0  0  0  0  0  0  0  0
   -7.5279   -0.7932  -22.1008 H   0  0  0  0  0  0  0  0  0  0  0  0
   -6.9412   -4.8141  -22.9921 C   0  0  0  0  0  0  0  0  0  0  0  0
   -8.1081   -5.7804  -22.9947 C   0  0  0  0  0  0  0  0  0  0  0  0
   -7.7562   -6.8018  -23.1655 H   0  0  0  0  0  0  0  0  0  0  0  0
   -8.5096   -5.7735  -21.9768 H   0  0  0  0  0  0  0  0  0  0  0  0
   -6.1969   -5.0821  -22.2390 H   0  0  0  0  0  0  0  0  0  0  0  0
   -6.4161   -4.7882  -23.9538 H   0  0  0  0  0  0  0  0  0  0  0  0
   -8.7056   -2.0113  -23.4758 H   0  0  0  0  0  0  0  0  0  0  0  0
   -9.5610   -3.2273  -22.5475 H   0  0  0  0  0  0  0  0  0  0  0  0
   -9.9272   -3.5594  -24.9866 H   0  0  0  0  0  0  0  0  0  0  0  0
   -8.2118   -3.8305  -25.2106 H   0  0  0  0  0  0  0  0  0  0  0  0
  -10.1557   -5.3236  -23.4127 H   0  0  0  0  0  0  0  0  0  0  0  0
   -9.4239   -7.4002  -24.5007 H   0  0  0  0  0  0  0  0  0  0  0  0
   -7.3323   -6.7172  -25.6764 H   0  0  0  0  0  0  0  0  0  0  0  0
   -8.3063   -5.7455  -26.7899 H   0  0  0  0  0  0  0  0  0  0  0  0
   -8.5364   -7.4892  -26.7288 H   0  0  0  0  0  0  0  0  0  0  0  0
  1  2  1  0
  2  3  1  0
  3  4  1  0
  3  5  1  0
  3  6  1  0
  2  7  1  0
  7  8  1  0
  8  9  1  0
  9 10  1  0
 10 11  1  0
 11 12  2  0
 11 13  1  0
 13 14  1  0
 14 15  2  0
 15 16  1  0
 16 17  2  0
 17 18  1  0
 18 19  2  0
 19 20  1  0
 20 21  2  0
 21 22  1  0
 22 23  2  0
 22 24  1  0
 21 25  1  0
 20 26  1  0
 19 27  1  0
 17 28  1  0
 15 29  1  0
 13 30  1  0
 13 31  1  0
 10 32  1  0
 32 33  1  0
 33 34  1  0
 33 35  1  0
 32 36  1  0
 32 37  1  0
  9 38  1  0
  9 39  1  0
  8 40  1  0
  8 41  1  0
  7 42  1  0
  2 43  1  0
  1 44  1  0
  1 45  1  0
  1 46  1  0
 33  7  1  0
 23 14  1  0
 23 18  1  0
M  END
>  <cnnaffinities>  (46) 
[5.18838, 5.18978, 5.18991, 5.18983, 4.90536, 4.90534, 4.90535, 4.87911, 4.87911, 4.81355, 4.81354]

>  <score>  (46) 
5.18838

>  <index>  (46) 
48

>  <Smiles>  (46) 
C(C(C([H])([H])[H])(C1(C(C(N(C(=O)C(c2c(nc(c3c(c(c(c(c23)[H])[H])[H])[H])[H])[H])([H])[H])C(C1([H])[H])([H])[H])([H])[H])([H])[H])[H])[H])([H])([H])[H]

>  <h>  (46) 
<NA>

>  <Training>  (46) 
True

>  <Success>  (46) 
True

>  <enamine_searched>  (46) 
False

>  <enamine_id>  (46) 
nan

$$$$

     RDKit          3D

 67 72  0  0  0  0  0  0  0  0999 V2000
   -7.7259    3.2228  -22.4688 C   0  0  0  0  0  0  0  0  0  0  0  0
   -8.5080    2.6942  -23.5656 N   0  0  0  0  0  0  0  0  0  0  0  0
   -7.9062    2.0167  -24.5747 C   0  0  0  0  0  0  0  0  0  0  0  0
   -6.7009    1.9943  -24.7513 O   0  0  0  0  0  0  0  0  0  0  0  0
   -8.8954    1.2453  -25.4655 C   0  0  0  0  0  0  0  0  0  0  0  0
   -9.5522    0.1939  -24.6976 N   0  0  0  0  0  0  0  0  0  0  0  0
   -8.7118   -0.9235  -24.3034 C   0  0  0  0  0  0  0  0  0  0  0  0
   -9.1276   -1.5915  -22.9546 C   0  0  2  0  0  0  0  0  0  0  0  0
   -8.5892   -0.7270  -21.7797 C   0  0  0  0  0  0  0  0  0  0  0  0
   -9.0584    0.3193  -21.3820 O   0  0  0  0  0  0  0  0  0  0  0  0
   -7.4612   -1.3324  -21.2656 N   0  0  0  0  0  0  0  0  0  0  0  0
   -6.6880   -0.7519  -20.2186 C   0  0  0  0  0  0  0  0  0  0  0  0
   -7.0025   -0.9992  -18.9069 C   0  0  0  0  0  0  0  0  0  0  0  0
   -6.2918   -0.5475  -17.8408 N   0  0  0  0  0  0  0  0  0  0  0  0
   -5.2216    0.1694  -18.0829 C   0  0  0  0  0  0  0  0  0  0  0  0
   -4.7736    0.5072  -19.3924 C   0  0  0  0  0  0  0  0  0  0  0  0
   -3.6105    1.2945  -19.6153 C   0  0  0  0  0  0  0  0  0  0  0  0
   -3.2288    1.6203  -20.8877 C   0  0  0  0  0  0  0  0  0  0  0  0
   -3.9945    1.1883  -21.9933 C   0  0  0  0  0  0  0  0  0  0  0  0
   -5.1284    0.4369  -21.8036 C   0  0  0  0  0  0  0  0  0  0  0  0
   -5.5357    0.0532  -20.4967 C   0  0  0  0  0  0  0  0  0  0  0  0
   -5.7426    0.1621  -22.6571 H   0  0  0  0  0  0  0  0  0  0  0  0
   -3.6911    1.4609  -22.9994 H   0  0  0  0  0  0  0  0  0  0  0  0
   -2.3448    2.2287  -21.0594 H   0  0  0  0  0  0  0  0  0  0  0  0
   -3.0377    1.6386  -18.7582 H   0  0  0  0  0  0  0  0  0  0  0  0
   -4.6547    0.5303  -17.2213 H   0  0  0  0  0  0  0  0  0  0  0  0
   -7.8723   -1.6064  -18.6674 H   0  0  0  0  0  0  0  0  0  0  0  0
   -7.0661   -2.5330  -21.9770 C   0  0  0  0  0  0  0  0  0  0  0  0
   -8.3498   -2.9177  -22.7320 C   0  0  2  0  0  0  0  0  0  0  0  0
   -8.0915   -3.7707  -23.9820 C   0  0  0  0  0  0  0  0  0  0  0  0
   -7.6292   -5.0978  -23.6534 N   0  0  0  0  0  0  0  0  0  0  0  0
   -6.2968   -5.3953  -23.5764 C   0  0  0  0  0  0  0  0  0  0  0  0
   -5.2329   -4.6609  -24.0112 C   0  0  0  0  0  0  0  0  0  0  0  0
   -3.9925   -5.2220  -23.8408 N   0  0  0  0  0  0  0  0  0  0  0  0
   -4.0721   -6.3873  -23.2823 C   0  0  0  0  0  0  0  0  0  0  0  0
   -2.8920   -7.2615  -22.9958 C   0  0  0  0  0  0  0  0  0  0  0  0
   -3.0598   -7.8634  -22.1003 H   0  0  0  0  0  0  0  0  0  0  0  0
   -2.7202   -7.9532  -23.8309 H   0  0  0  0  0  0  0  0  0  0  0  0
   -1.9975   -6.6416  -22.8745 H   0  0  0  0  0  0  0  0  0  0  0  0
   -5.7052   -6.8960  -22.9022 S   0  0  0  0  0  0  0  0  0  0  0  0
   -5.3129   -3.6873  -24.4798 H   0  0  0  0  0  0  0  0  0  0  0  0
   -8.2957   -5.8473  -23.5644 H   0  0  0  0  0  0  0  0  0  0  0  0
   -9.0095   -3.8505  -24.5765 H   0  0  0  0  0  0  0  0  0  0  0  0
   -7.3259   -3.2905  -24.6055 H   0  0  0  0  0  0  0  0  0  0  0  0
   -8.9448   -3.5230  -22.0449 H   0  0  0  0  0  0  0  0  0  0  0  0
   -6.2175   -2.3551  -22.6594 H   0  0  0  0  0  0  0  0  0  0  0  0
   -6.7411   -3.3149  -21.2854 H   0  0  0  0  0  0  0  0  0  0  0  0
  -10.6447   -1.6960  -22.8656 C   0  0  0  0  0  0  0  0  0  0  0  0
  -11.2776   -2.6013  -21.9990 C   0  0  0  0  0  0  0  0  0  0  0  0
  -12.6563   -2.6168  -21.8773 C   0  0  0  0  0  0  0  0  0  0  0  0
  -13.4121   -3.7715  -20.8175 Cl  0  0  0  0  0  0  0  0  0  0  0  0
  -13.4629   -1.7208  -22.5728 C   0  0  0  0  0  0  0  0  0  0  0  0
  -12.8478   -0.7861  -23.3778 C   0  0  0  0  0  0  0  0  0  0  0  0
  -11.4587   -0.7642  -23.5221 C   0  0  0  0  0  0  0  0  0  0  0  0
  -10.8626    0.3400  -24.3450 C   0  0  0  0  0  0  0  0  0  0  0  0
  -11.5162    1.3251  -24.6616 O   0  0  0  0  0  0  0  0  0  0  0  0
  -13.4324   -0.0338  -23.8931 H   0  0  0  0  0  0  0  0  0  0  0  0
  -14.5417   -1.7547  -22.4538 H   0  0  0  0  0  0  0  0  0  0  0  0
  -10.7164   -3.2900  -21.3800 H   0  0  0  0  0  0  0  0  0  0  0  0
   -7.6969   -0.5277  -24.1985 H   0  0  0  0  0  0  0  0  0  0  0  0
   -8.6817   -1.6534  -25.1223 H   0  0  0  0  0  0  0  0  0  0  0  0
   -9.6833    1.8944  -25.8592 H   0  0  0  0  0  0  0  0  0  0  0  0
   -8.3376    0.8327  -26.3109 H   0  0  0  0  0  0  0  0  0  0  0  0
   -9.4693    2.4701  -23.3682 H   0  0  0  0  0  0  0  0  0  0  0  0
   -7.3988    2.4233  -21.7860 H   0  0  0  0  0  0  0  0  0  0  0  0
   -6.8423    3.7123  -22.8799 H   0  0  0  0  0  0  0  0  0  0  0  0
   -8.3156    3.9624  -21.9241 H   0  0  0  0  0  0  0  0  0  0  0  0
  1  2  1  0
  2  3  1  0
  3  4  2  0
  3  5  1  0
  5  6  1  0
  6  7  1  0
  8  7  1  6
  8  9  1  0
  9 10  2  0
  9 11  1  0
 11 12  1  0
 12 13  2  0
 13 14  1  0
 14 15  2  0
 15 16  1  0
 16 17  2  0
 17 18  1  0
 18 19  2  0
 19 20  1  0
 20 21  2  0
 20 22  1  0
 19 23  1  0
 18 24  1  0
 17 25  1  0
 15 26  1  0
 13 27  1  0
 11 28  1  0
 28 29  1  0
 29 30  1  0
 30 31  1  0
 31 32  1  0
 32 33  2  0
 33 34  1  0
 34 35  2  0
 35 36  1  0
 36 37  1  0
 36 38  1  0
 36 39  1  0
 35 40  1  0
 33 41  1  0
 31 42  1  0
 30 43  1  0
 30 44  1  0
 29 45  1  1
 28 46  1  0
 28 47  1  0
  8 48  1  0
 48 49  2  0
 49 50  1  0
 50 51  1  0
 50 52  2  0
 52 53  1  0
 53 54  2  0
 54 55  1  0
 55 56  2  0
 53 57  1  0
 52 58  1  0
 49 59  1  0
  7 60  1  0
  7 61  1  0
  5 62  1  0
  5 63  1  0
  2 64  1  0
  1 65  1  0
  1 66  1  0
  1 67  1  0
 55  6  1  0
 29  8  1  0
 40 32  1  0
 54 48  1  0
 21 12  1  0
 21 16  1  0
M  END
>  <cnnaffinities>  (47) 
[6.85099]

>  <score>  (47) 
6.85099

>  <index>  (47) 
49

>  <Smiles>  (47) 
C(N(C(=O)C(N1C([C@@]2(C(=O)N(c3c(nc(c4c(c(c(c(c34)[H])[H])[H])[H])[H])[H])C([C@@]2(C(N(c2c(nc(C([H])([H])[H])s2)[H])[H])([H])[H])[H])([H])[H])c2c(c(Cl)c(c(c2C1=O)[H])[H])[H])([H])[H])([H])[H])[H])([H])([H])[H]

>  <h>  (47) 
<NA>

>  <Training>  (47) 
True

>  <Success>  (47) 
True

>  <enamine_searched>  (47) 
False

>  <enamine_id>  (47) 
nan

$$$$

     RDKit          3D

 66 70  0  0  0  0  0  0  0  0999 V2000
   -7.8017    3.1937  -22.4632 C   0  0  0  0  0  0  0  0  0  0  0  0
   -8.6656    2.6638  -23.5019 N   0  0  0  0  0  0  0  0  0  0  0  0
   -8.1030    1.9710  -24.5215 C   0  0  0  0  0  0  0  0  0  0  0  0
   -6.8946    1.8895  -24.6838 O   0  0  0  0  0  0  0  0  0  0  0  0
   -9.1091    1.2132  -25.3921 C   0  0  0  0  0  0  0  0  0  0  0  0
   -9.7284    0.1529  -24.6126 N   0  0  0  0  0  0  0  0  0  0  0  0
   -8.8689   -0.9595  -24.2510 C   0  0  0  0  0  0  0  0  0  0  0  0
   -9.2049   -1.6162  -22.8755 C   0  0  2  0  0  0  0  0  0  0  0  0
   -8.6416   -0.7452  -21.7185 C   0  0  0  0  0  0  0  0  0  0  0  0
   -9.1308    0.2794  -21.2882 O   0  0  0  0  0  0  0  0  0  0  0  0
   -7.4793   -1.3240  -21.2481 N   0  0  0  0  0  0  0  0  0  0  0  0
   -6.6971   -0.7549  -20.2033 C   0  0  0  0  0  0  0  0  0  0  0  0
   -7.0166   -0.9870  -18.8901 C   0  0  0  0  0  0  0  0  0  0  0  0
   -6.3000   -0.5367  -17.8268 N   0  0  0  0  0  0  0  0  0  0  0  0
   -5.2257    0.1700  -18.0802 C   0  0  0  0  0  0  0  0  0  0  0  0
   -4.7794    0.5017  -19.3919 C   0  0  0  0  0  0  0  0  0  0  0  0
   -3.6148    1.2843  -19.6222 C   0  0  0  0  0  0  0  0  0  0  0  0
   -3.2320    1.5945  -20.8977 C   0  0  0  0  0  0  0  0  0  0  0  0
   -3.9952    1.1533  -22.0019 C   0  0  0  0  0  0  0  0  0  0  0  0
   -5.1298    0.4044  -21.8032 C   0  0  0  0  0  0  0  0  0  0  0  0
   -5.5407    0.0385  -20.4926 C   0  0  0  0  0  0  0  0  0  0  0  0
   -5.7422    0.1239  -22.6556 H   0  0  0  0  0  0  0  0  0  0  0  0
   -3.6907    1.4151  -23.0116 H   0  0  0  0  0  0  0  0  0  0  0  0
   -2.3492    2.2026  -21.0721 H   0  0  0  0  0  0  0  0  0  0  0  0
   -3.0458    1.6403  -18.7661 H   0  0  0  0  0  0  0  0  0  0  0  0
   -4.6507    0.5292  -17.2243 H   0  0  0  0  0  0  0  0  0  0  0  0
   -7.8938   -1.5840  -18.6547 H   0  0  0  0  0  0  0  0  0  0  0  0
   -7.0773   -2.5129  -21.9746 C   0  0  0  0  0  0  0  0  0  0  0  0
   -8.3815   -2.9214  -22.6895 C   0  0  2  0  0  0  0  0  0  0  0  0
   -8.1386   -3.7062  -23.9662 C   0  0  0  0  0  0  0  0  0  0  0  0
   -7.4975   -4.9194  -23.6658 O   0  0  0  0  0  0  0  0  0  0  0  0
   -7.3236   -5.7480  -24.8069 C   0  0  0  0  0  0  0  0  0  0  0  0
   -8.4699   -6.7459  -24.8816 C   0  0  0  0  0  0  0  0  0  0  0  0
   -8.4728   -7.3541  -23.9735 H   0  0  0  0  0  0  0  0  0  0  0  0
   -8.3575   -7.4026  -25.7498 H   0  0  0  0  0  0  0  0  0  0  0  0
   -9.4386   -6.2391  -24.9544 H   0  0  0  0  0  0  0  0  0  0  0  0
   -5.9680   -6.4245  -24.6808 C   0  0  0  0  0  0  0  0  0  0  0  0
   -5.9568   -7.0387  -23.7746 H   0  0  0  0  0  0  0  0  0  0  0  0
   -5.7751   -7.0643  -25.5502 H   0  0  0  0  0  0  0  0  0  0  0  0
   -5.1708   -5.6758  -24.6096 H   0  0  0  0  0  0  0  0  0  0  0  0
   -7.3288   -5.1115  -25.7040 H   0  0  0  0  0  0  0  0  0  0  0  0
   -9.0925   -3.8866  -24.4860 H   0  0  0  0  0  0  0  0  0  0  0  0
   -7.4901   -3.1369  -24.6497 H   0  0  0  0  0  0  0  0  0  0  0  0
   -8.9241   -3.5806  -22.0090 H   0  0  0  0  0  0  0  0  0  0  0  0
   -6.7259   -3.2860  -21.2842 H   0  0  0  0  0  0  0  0  0  0  0  0
   -6.2560   -2.3084  -22.6843 H   0  0  0  0  0  0  0  0  0  0  0  0
  -10.7151   -1.7523  -22.7439 C   0  0  0  0  0  0  0  0  0  0  0  0
  -11.3142   -2.7154  -21.9169 C   0  0  0  0  0  0  0  0  0  0  0  0
  -12.6837   -2.7066  -21.7313 C   0  0  0  0  0  0  0  0  0  0  0  0
  -13.2355   -3.6392  -20.9365 F   0  0  0  0  0  0  0  0  0  0  0  0
  -13.5220   -1.7658  -22.3161 C   0  0  0  0  0  0  0  0  0  0  0  0
  -12.9366   -0.8080  -23.1157 C   0  0  0  0  0  0  0  0  0  0  0  0
  -11.5590   -0.8001  -23.3381 C   0  0  0  0  0  0  0  0  0  0  0  0
  -11.0113    0.3021  -24.1867 C   0  0  0  0  0  0  0  0  0  0  0  0
  -11.6834    1.2932  -24.4704 O   0  0  0  0  0  0  0  0  0  0  0  0
  -13.5346   -0.0351  -23.5824 H   0  0  0  0  0  0  0  0  0  0  0  0
  -14.5908   -1.7932  -22.1240 H   0  0  0  0  0  0  0  0  0  0  0  0
  -10.7510   -3.4725  -21.3807 H   0  0  0  0  0  0  0  0  0  0  0  0
   -8.9006   -1.7087  -25.0512 H   0  0  0  0  0  0  0  0  0  0  0  0
   -7.8463   -0.5717  -24.2074 H   0  0  0  0  0  0  0  0  0  0  0  0
   -8.5700    0.8003  -26.2449 H   0  0  0  0  0  0  0  0  0  0  0  0
   -9.9124    1.8559  -25.7540 H   0  0  0  0  0  0  0  0  0  0  0  0
   -9.6164    2.4274  -23.2554 H   0  0  0  0  0  0  0  0  0  0  0  0
   -8.3197    3.9842  -21.9043 H   0  0  0  0  0  0  0  0  0  0  0  0
   -7.4678    2.3922  -21.7815 H   0  0  0  0  0  0  0  0  0  0  0  0
   -6.9226    3.6155  -22.9627 H   0  0  0  0  0  0  0  0  0  0  0  0
  1  2  1  0
  2  3  1  0
  3  4  2  0
  3  5  1  0
  5  6  1  0
  6  7  1  0
  8  7  1  6
  8  9  1  0
  9 10  2  0
  9 11  1  0
 11 12  1  0
 12 13  2  0
 13 14  1  0
 14 15  2  0
 15 16  1  0
 16 17  2  0
 17 18  1  0
 18 19  2  0
 19 20  1  0
 20 21  2  0
 20 22  1  0
 19 23  1  0
 18 24  1  0
 17 25  1  0
 15 26  1  0
 13 27  1  0
 11 28  1  0
 28 29  1  0
 29 30  1  0
 30 31  1  0
 31 32  1  0
 32 33  1  0
 33 34  1  0
 33 35  1  0
 33 36  1  0
 32 37  1  0
 37 38  1  0
 37 39  1  0
 37 40  1  0
 32 41  1  0
 30 42  1  0
 30 43  1  0
 29 44  1  1
 28 45  1  0
 28 46  1  0
  8 47  1  0
 47 48  2  0
 48 49  1  0
 49 50  1  0
 49 51  2  0
 51 52  1  0
 52 53  2  0
 53 54  1  0
 54 55  2  0
 52 56  1  0
 51 57  1  0
 48 58  1  0
  7 59  1  0
  7 60  1  0
  5 61  1  0
  5 62  1  0
  2 63  1  0
  1 64  1  0
  1 65  1  0
  1 66  1  0
 54  6  1  0
 29  8  1  0
 53 47  1  0
 21 12  1  0
 21 16  1  0
M  END
>  <cnnaffinities>  (48) 
[6.66583, 6.66672]

>  <score>  (48) 
6.66583

>  <index>  (48) 
50

>  <Smiles>  (48) 
C(N(C(=O)C(N1C([C@@]2(C(=O)N(c3c(nc(c4c(c(c(c(c34)[H])[H])[H])[H])[H])[H])C([C@@]2(C(OC(C([H])([H])[H])(C([H])([H])[H])[H])([H])[H])[H])([H])[H])c2c(c(F)c(c(c2C1=O)[H])[H])[H])([H])[H])([H])[H])[H])([H])([H])[H]

>  <h>  (48) 
<NA>

>  <Training>  (48) 
True

>  <Success>  (48) 
True

>  <enamine_searched>  (48) 
False

>  <enamine_id>  (48) 
nan

$$$$

     RDKit          3D

 50 52  0  0  0  0  0  0  0  0999 V2000
   -9.5158   -1.1208  -26.3372 C   0  0  0  0  0  0  0  0  0  0  0  0
   -9.0784   -0.3270  -25.3646 C   0  0  0  0  0  0  0  0  0  0  0  0
   -9.6338   -0.4153  -23.9581 C   0  0  0  0  0  0  0  0  0  0  0  0
   -8.7604   -1.2118  -23.0923 N   0  0  0  0  0  0  0  0  0  0  0  0
   -8.0361   -0.5185  -22.1371 C   0  0  0  0  0  0  0  0  0  0  0  0
   -8.0203    0.6994  -22.0565 O   0  0  0  0  0  0  0  0  0  0  0  0
   -7.3378   -1.3260  -21.2743 N   0  0  0  0  0  0  0  0  0  0  0  0
   -6.5849   -0.7854  -20.2198 C   0  0  0  0  0  0  0  0  0  0  0  0
   -6.9244   -1.0386  -18.9175 C   0  0  0  0  0  0  0  0  0  0  0  0
   -6.2572   -0.5468  -17.8469 N   0  0  0  0  0  0  0  0  0  0  0  0
   -5.2083    0.2052  -18.0911 C   0  0  0  0  0  0  0  0  0  0  0  0
   -4.7455    0.5322  -19.3969 C   0  0  0  0  0  0  0  0  0  0  0  0
   -3.5959    1.3369  -19.6235 C   0  0  0  0  0  0  0  0  0  0  0  0
   -3.1736    1.6018  -20.8995 C   0  0  0  0  0  0  0  0  0  0  0  0
   -3.8716    1.0780  -22.0081 C   0  0  0  0  0  0  0  0  0  0  0  0
   -4.9871    0.3068  -21.8173 C   0  0  0  0  0  0  0  0  0  0  0  0
   -5.4538    0.0246  -20.5018 C   0  0  0  0  0  0  0  0  0  0  0  0
   -5.5402   -0.0764  -22.6661 H   0  0  0  0  0  0  0  0  0  0  0  0
   -3.5384    1.3106  -23.0184 H   0  0  0  0  0  0  0  0  0  0  0  0
   -2.2973    2.2216  -21.0637 H   0  0  0  0  0  0  0  0  0  0  0  0
   -3.0646    1.7337  -18.7649 H   0  0  0  0  0  0  0  0  0  0  0  0
   -4.6775    0.5969  -17.2245 H   0  0  0  0  0  0  0  0  0  0  0  0
   -7.7882   -1.6642  -18.6941 H   0  0  0  0  0  0  0  0  0  0  0  0
   -7.6438   -2.2823  -21.1822 H   0  0  0  0  0  0  0  0  0  0  0  0
   -8.4120   -2.5230  -23.5513 C   0  0  0  0  0  0  0  0  0  0  0  0
   -7.0838   -2.8885  -23.8021 C   0  0  0  0  0  0  0  0  0  0  0  0
   -6.8040   -4.1706  -24.2592 C   0  0  0  0  0  0  0  0  0  0  0  0
   -7.8296   -5.0541  -24.5712 C   0  0  0  0  0  0  0  0  0  0  0  0
   -9.1435   -4.6379  -24.4016 C   0  0  0  0  0  0  0  0  0  0  0  0
  -10.4495   -5.6462  -24.9571 Cl  0  0  0  0  0  0  0  0  0  0  0  0
   -9.4514   -3.3954  -23.8693 C   0  0  0  0  0  0  0  0  0  0  0  0
  -10.4886   -3.1074  -23.7092 H   0  0  0  0  0  0  0  0  0  0  0  0
   -7.6331   -6.0507  -24.9445 H   0  0  0  0  0  0  0  0  0  0  0  0
   -5.7709   -4.4857  -24.3783 H   0  0  0  0  0  0  0  0  0  0  0  0
   -6.2808   -2.1743  -23.6351 H   0  0  0  0  0  0  0  0  0  0  0  0
  -10.6090   -0.9164  -23.9971 H   0  0  0  0  0  0  0  0  0  0  0  0
   -9.7654    0.5624  -23.4812 H   0  0  0  0  0  0  0  0  0  0  0  0
   -7.8529    0.4854  -25.6816 C   0  0  0  0  0  0  0  0  0  0  0  0
   -7.1884    0.2474  -26.6838 O   0  0  0  0  0  0  0  0  0  0  0  0
   -7.5212    1.4902  -24.8290 N   0  0  0  0  0  0  0  0  0  0  0  0
   -6.2085    2.0937  -24.9759 C   0  0  0  0  0  0  0  0  0  0  0  0
   -6.0525    3.1749  -23.9224 C   0  0  0  0  0  0  0  0  0  0  0  0
   -6.7547    3.9976  -24.1031 H   0  0  0  0  0  0  0  0  0  0  0  0
   -5.0403    3.5884  -23.9245 H   0  0  0  0  0  0  0  0  0  0  0  0
   -6.2441    2.7433  -22.9286 H   0  0  0  0  0  0  0  0  0  0  0  0
   -6.1093    2.4799  -25.9953 H   0  0  0  0  0  0  0  0  0  0  0  0
   -5.4278    1.3239  -24.8643 H   0  0  0  0  0  0  0  0  0  0  0  0
   -7.9371    1.5468  -23.9052 H   0  0  0  0  0  0  0  0  0  0  0  0
   -9.0402   -1.1241  -27.3153 H   0  0  0  0  0  0  0  0  0  0  0  0
  -10.3404   -1.8112  -26.1587 H   0  0  0  0  0  0  0  0  0  0  0  0
  1  2  2  0
  2  3  1  0
  3  4  1  0
  4  5  1  0
  5  6  2  0
  5  7  1  0
  7  8  1  0
  8  9  2  0
  9 10  1  0
 10 11  2  0
 11 12  1  0
 12 13  2  0
 13 14  1  0
 14 15  2  0
 15 16  1  0
 16 17  2  0
 16 18  1  0
 15 19  1  0
 14 20  1  0
 13 21  1  0
 11 22  1  0
  9 23  1  0
  7 24  1  0
  4 25  1  0
 25 26  2  0
 26 27  1  0
 27 28  2  0
 28 29  1  0
 29 30  1  0
 29 31  2  0
 31 32  1  0
 28 33  1  0
 27 34  1  0
 26 35  1  0
  3 36  1  0
  3 37  1  0
  2 38  1  0
 38 39  2  0
 38 40  1  0
 40 41  1  0
 41 42  1  0
 42 43  1  0
 42 44  1  0
 42 45  1  0
 41 46  1  0
 41 47  1  0
 40 48  1  0
  1 49  1  0
  1 50  1  0
 17  8  1  0
 31 25  1  0
 17 12  1  0
M  END
>  <cnnaffinities>  (49) 
[5.43698, 6.30871, 6.44766, 5.80453]

>  <score>  (49) 
5.43698

>  <index>  (49) 
51

>  <Smiles>  (49) 
C(=C(C(N(C(=O)N(c1c(nc(c2c(c(c(c(c12)[H])[H])[H])[H])[H])[H])[H])c1c(c(c(c(Cl)c1[H])[H])[H])[H])([H])[H])C(=O)N(C(C([H])([H])[H])([H])[H])[H])([H])[H]

>  <h>  (49) 
<NA>

>  <Training>  (49) 
True

>  <Success>  (49) 
True

>  <enamine_searched>  (49) 
False

>  <enamine_id>  (49) 
nan

$$$$

     RDKit          3D

 57 60  0  0  0  0  0  0  0  0999 V2000
   -2.7772   -4.2477  -29.8329 C   0  0  0  0  0  0  0  0  0  0  0  0
   -2.7454   -3.2912  -28.6417 C   0  0  0  0  0  0  0  0  0  0  0  0
   -3.8760   -3.5838  -27.6570 C   0  0  0  0  0  0  0  0  0  0  0  0
   -4.9625   -3.0455  -27.7669 O   0  0  0  0  0  0  0  0  0  0  0  0
   -3.6297   -4.5064  -26.6580 N   0  0  0  0  0  0  0  0  0  0  0  0
   -4.5034   -4.7709  -25.5682 C   0  0  0  0  0  0  0  0  0  0  0  0
   -4.5893   -6.0659  -25.0435 C   0  0  0  0  0  0  0  0  0  0  0  0
   -5.4516   -6.3204  -23.9822 C   0  0  0  0  0  0  0  0  0  0  0  0
   -6.2032   -5.3058  -23.3953 C   0  0  0  0  0  0  0  0  0  0  0  0
   -6.0756   -4.0039  -23.8835 C   0  0  0  0  0  0  0  0  0  0  0  0
   -6.8354   -2.9216  -23.3079 N   0  0  0  0  0  0  0  0  0  0  0  0
   -7.8251   -2.2401  -24.1364 C   0  0  0  0  0  0  0  0  0  0  0  0
   -9.2588   -2.5000  -23.7237 C   0  0  0  0  0  0  0  0  0  0  0  0
  -10.1232   -1.4560  -23.3925 C   0  0  0  0  0  0  0  0  0  0  0  0
  -11.4305   -1.7096  -22.9859 C   0  0  0  0  0  0  0  0  0  0  0  0
  -11.8930   -3.0190  -22.9190 C   0  0  0  0  0  0  0  0  0  0  0  0
  -11.0422   -4.0622  -23.2678 C   0  0  0  0  0  0  0  0  0  0  0  0
   -9.7355   -3.8089  -23.6686 C   0  0  0  0  0  0  0  0  0  0  0  0
   -9.0786   -4.6324  -23.9427 H   0  0  0  0  0  0  0  0  0  0  0  0
  -11.4060   -5.0803  -23.2332 H   0  0  0  0  0  0  0  0  0  0  0  0
  -12.9112   -3.2274  -22.6030 H   0  0  0  0  0  0  0  0  0  0  0  0
  -12.0856   -0.8851  -22.7202 H   0  0  0  0  0  0  0  0  0  0  0  0
   -9.7725   -0.4270  -23.4444 H   0  0  0  0  0  0  0  0  0  0  0  0
   -7.6280   -1.1613  -24.1576 H   0  0  0  0  0  0  0  0  0  0  0  0
   -7.6680   -2.6018  -25.1553 H   0  0  0  0  0  0  0  0  0  0  0  0
   -6.6610   -2.6536  -21.9544 C   0  0  0  0  0  0  0  0  0  0  0  0
   -5.9153   -3.3353  -21.2801 O   0  0  0  0  0  0  0  0  0  0  0  0
   -7.3915   -1.4610  -21.2901 C   0  0  0  0  0  0  0  0  0  0  0  0
   -6.5741   -0.8303  -20.1804 C   0  0  0  0  0  0  0  0  0  0  0  0
   -6.8742   -1.0458  -18.8596 C   0  0  0  0  0  0  0  0  0  0  0  0
   -6.1936   -0.5365  -17.7942 N   0  0  0  0  0  0  0  0  0  0  0  0
   -5.1575    0.2198  -18.0642 C   0  0  0  0  0  0  0  0  0  0  0  0
   -4.7194    0.5327  -19.3774 C   0  0  0  0  0  0  0  0  0  0  0  0
   -3.5927    1.3571  -19.6217 C   0  0  0  0  0  0  0  0  0  0  0  0
   -3.1930    1.6360  -20.9004 C   0  0  0  0  0  0  0  0  0  0  0  0
   -3.9072    1.0954  -21.9932 C   0  0  0  0  0  0  0  0  0  0  0  0
   -5.0025    0.2952  -21.7846 C   0  0  0  0  0  0  0  0  0  0  0  0
   -5.4456   -0.0074  -20.4728 C   0  0  0  0  0  0  0  0  0  0  0  0
   -5.5380   -0.1071  -22.6408 H   0  0  0  0  0  0  0  0  0  0  0  0
   -3.5902    1.3257  -23.0059 H   0  0  0  0  0  0  0  0  0  0  0  0
   -2.3333    2.2754  -21.0897 H   0  0  0  0  0  0  0  0  0  0  0  0
   -3.0512    1.7693  -18.7724 H   0  0  0  0  0  0  0  0  0  0  0  0
   -4.6013    0.6266  -17.2160 H   0  0  0  0  0  0  0  0  0  0  0  0
   -7.7226   -1.6721  -18.5865 H   0  0  0  0  0  0  0  0  0  0  0  0
   -7.6864   -0.6964  -22.0171 H   0  0  0  0  0  0  0  0  0  0  0  0
   -8.3239   -1.8493  -20.8590 H   0  0  0  0  0  0  0  0  0  0  0  0
   -5.2525   -3.7478  -24.9821 C   0  0  0  0  0  0  0  0  0  0  0  0
   -5.1675   -2.7369  -25.3604 H   0  0  0  0  0  0  0  0  0  0  0  0
   -6.8644   -5.5202  -22.5575 H   0  0  0  0  0  0  0  0  0  0  0  0
   -5.5208   -7.3267  -23.5814 H   0  0  0  0  0  0  0  0  0  0  0  0
   -4.0084   -6.8829  -25.4679 H   0  0  0  0  0  0  0  0  0  0  0  0
   -2.8197   -5.1025  -26.7465 H   0  0  0  0  0  0  0  0  0  0  0  0
   -1.7605   -3.3116  -28.1569 H   0  0  0  0  0  0  0  0  0  0  0  0
   -2.9102   -2.2714  -28.9989 H   0  0  0  0  0  0  0  0  0  0  0  0
   -2.6270   -5.2791  -29.5010 H   0  0  0  0  0  0  0  0  0  0  0  0
   -1.9922   -4.0077  -30.5595 H   0  0  0  0  0  0  0  0  0  0  0  0
   -3.7388   -4.1972  -30.3552 H   0  0  0  0  0  0  0  0  0  0  0  0
  1  2  1  0
  2  3  1  0
  3  4  2  0
  3  5  1  0
  5  6  1  0
  6  7  2  0
  7  8  1  0
  8  9  2  0
  9 10  1  0
 10 11  1  0
 11 12  1  0
 12 13  1  0
 13 14  2  0
 14 15  1  0
 15 16  2  0
 16 17  1  0
 17 18  2  0
 18 19  1  0
 17 20  1  0
 16 21  1  0
 15 22  1  0
 14 23  1  0
 12 24  1  0
 12 25  1  0
 11 26  1  0
 26 27  2  0
 26 28  1  0
 28 29  1  0
 29 30  2  0
 30 31  1  0
 31 32  2  0
 32 33  1  0
 33 34  2  0
 34 35  1  0
 35 36  2  0
 36 37  1  0
 37 38  2  0
 37 39  1  0
 36 40  1  0
 35 41  1  0
 34 42  1  0
 32 43  1  0
 30 44  1  0
 28 45  1  0
 28 46  1  0
 10 47  2  0
 47 48  1  0
  9 49  1  0
  8 50  1  0
  7 51  1  0
  5 52  1  0
  2 53  1  0
  2 54  1  0
  1 55  1  0
  1 56  1  0
  1 57  1  0
 47  6  1  0
 18 13  1  0
 38 29  1  0
 38 33  1  0
M  END
>  <cnnaffinities>  (50) 
[5.96738, 6.07349, 6.07501]

>  <score>  (50) 
5.96738

>  <index>  (50) 
52

>  <Smiles>  (50) 
C(C(C(=O)N(c1c(c(c(c(N(C(c2c(c(c(c(c2[H])[H])[H])[H])[H])([H])[H])C(=O)C(c2c(nc(c3c(c(c(c(c23)[H])[H])[H])[H])[H])[H])([H])[H])c1[H])[H])[H])[H])[H])([H])[H])([H])([H])[H]

>  <h>  (50) 
<NA>

>  <Training>  (50) 
True

>  <Success>  (50) 
True

>  <enamine_searched>  (50) 
False

>  <enamine_id>  (50) 
nan

$$$$

     RDKit          3D

 59 63  0  0  0  0  0  0  0  0999 V2000
   -7.9242    4.4509  -22.6847 C   0  0  0  0  0  0  0  0  0  0  0  0
   -6.9338    3.4960  -23.3258 C   0  0  0  0  0  0  0  0  0  0  0  0
   -7.6525    2.6714  -24.2770 N   0  0  0  0  0  0  0  0  0  0  0  0
   -7.0197    1.6370  -24.8774 C   0  0  0  0  0  0  0  0  0  0  0  0
   -5.8312    1.3951  -24.7189 O   0  0  0  0  0  0  0  0  0  0  0  0
   -7.9233    0.7827  -25.7675 C   0  0  0  0  0  0  0  0  0  0  0  0
   -8.8771    0.0647  -24.9396 N   0  0  0  0  0  0  0  0  0  0  0  0
   -8.4779   -1.2137  -24.3702 C   0  0  0  0  0  0  0  0  0  0  0  0
   -9.0601   -1.4485  -22.9465 C   0  0  2  0  0  0  0  0  0  0  0  0
   -8.3209   -0.5223  -21.9491 C   0  0  0  0  0  0  0  0  0  0  0  0
   -8.4430    0.6787  -21.8256 O   0  0  0  0  0  0  0  0  0  0  0  0
   -7.4733   -1.2937  -21.1892 N   0  0  0  0  0  0  0  0  0  0  0  0
   -6.6441   -0.7632  -20.1796 C   0  0  0  0  0  0  0  0  0  0  0  0
   -6.9284   -1.0444  -18.8663 C   0  0  0  0  0  0  0  0  0  0  0  0
   -6.2295   -0.5674  -17.8107 N   0  0  0  0  0  0  0  0  0  0  0  0
   -5.1910    0.1876  -18.0842 C   0  0  0  0  0  0  0  0  0  0  0  0
   -4.7574    0.5120  -19.4016 C   0  0  0  0  0  0  0  0  0  0  0  0
   -3.6131    1.3213  -19.6290 C   0  0  0  0  0  0  0  0  0  0  0  0
   -3.2108    1.6106  -20.9043 C   0  0  0  0  0  0  0  0  0  0  0  0
   -3.9274    1.1023  -22.0111 C   0  0  0  0  0  0  0  0  0  0  0  0
   -5.0373    0.3143  -21.8206 C   0  0  0  0  0  0  0  0  0  0  0  0
   -5.4916    0.0165  -20.5008 C   0  0  0  0  0  0  0  0  0  0  0  0
   -5.5695   -0.0609  -22.6897 H   0  0  0  0  0  0  0  0  0  0  0  0
   -3.6232    1.3572  -23.0226 H   0  0  0  0  0  0  0  0  0  0  0  0
   -2.3400    2.2368  -21.0745 H   0  0  0  0  0  0  0  0  0  0  0  0
   -3.0743    1.6998  -18.7668 H   0  0  0  0  0  0  0  0  0  0  0  0
   -4.6313    0.5841  -17.2392 H   0  0  0  0  0  0  0  0  0  0  0  0
   -7.7858   -1.6759  -18.6335 H   0  0  0  0  0  0  0  0  0  0  0  0
   -7.4341   -2.6855  -21.5562 C   0  0  0  0  0  0  0  0  0  0  0  0
   -8.6883   -2.8703  -22.4212 C   0  0  2  0  0  0  0  0  0  0  0  0
   -8.4857   -3.9453  -23.4841 C   0  0  0  0  0  0  0  0  0  0  0  0
   -8.2868   -4.9160  -23.0187 H   0  0  0  0  0  0  0  0  0  0  0  0
   -7.6201   -3.7005  -24.1119 H   0  0  0  0  0  0  0  0  0  0  0  0
   -9.3621   -4.0439  -24.1349 H   0  0  0  0  0  0  0  0  0  0  0  0
   -9.4829   -3.2063  -21.7534 H   0  0  0  0  0  0  0  0  0  0  0  0
   -6.5206   -2.9348  -22.1170 H   0  0  0  0  0  0  0  0  0  0  0  0
   -7.4398   -3.3151  -20.6636 H   0  0  0  0  0  0  0  0  0  0  0  0
  -10.5488   -1.1360  -22.9804 C   0  0  0  0  0  0  0  0  0  0  0  0
  -11.4733   -1.7745  -22.1445 C   0  0  0  0  0  0  0  0  0  0  0  0
  -12.8178   -1.4719  -22.2297 C   0  0  0  0  0  0  0  0  0  0  0  0
  -13.9390   -2.3821  -21.2538 Cl  0  0  0  0  0  0  0  0  0  0  0  0
  -13.2862   -0.4682  -23.0787 C   0  0  0  0  0  0  0  0  0  0  0  0
  -12.3783    0.2050  -23.8729 C   0  0  0  0  0  0  0  0  0  0  0  0
  -11.0249   -0.1190  -23.8233 C   0  0  0  0  0  0  0  0  0  0  0  0
  -10.1008    0.6295  -24.7254 C   0  0  0  0  0  0  0  0  0  0  0  0
  -10.4393    1.6845  -25.2570 O   0  0  0  0  0  0  0  0  0  0  0  0
  -12.7061    0.9813  -24.5593 H   0  0  0  0  0  0  0  0  0  0  0  0
  -14.3408   -0.2263  -23.1008 H   0  0  0  0  0  0  0  0  0  0  0  0
  -11.1513   -2.4947  -21.3985 H   0  0  0  0  0  0  0  0  0  0  0  0
   -7.3800   -1.2377  -24.3068 H   0  0  0  0  0  0  0  0  0  0  0  0
   -8.8211   -2.0194  -25.0330 H   0  0  0  0  0  0  0  0  0  0  0  0
   -7.3077    0.0990  -26.3614 H   0  0  0  0  0  0  0  0  0  0  0  0
   -8.4923    1.4199  -26.4510 H   0  0  0  0  0  0  0  0  0  0  0  0
   -8.6614    2.6457  -24.1769 H   0  0  0  0  0  0  0  0  0  0  0  0
   -6.4467    2.8329  -22.5969 H   0  0  0  0  0  0  0  0  0  0  0  0
   -6.1332    4.0269  -23.8464 H   0  0  0  0  0  0  0  0  0  0  0  0
   -8.5734    3.8862  -22.0140 H   0  0  0  0  0  0  0  0  0  0  0  0
   -8.5516    4.9231  -23.4481 H   0  0  0  0  0  0  0  0  0  0  0  0
   -7.4370    5.2454  -22.1140 H   0  0  0  0  0  0  0  0  0  0  0  0
  1  2  1  0
  2  3  1  0
  3  4  1  0
  4  5  2  0
  4  6  1  0
  6  7  1  0
  7  8  1  0
  9  8  1  6
  9 10  1  0
 10 11  2  0
 10 12  1  0
 12 13  1  0
 13 14  2  0
 14 15  1  0
 15 16  2  0
 16 17  1  0
 17 18  2  0
 18 19  1  0
 19 20  2  0
 20 21  1  0
 21 22  2  0
 21 23  1  0
 20 24  1  0
 19 25  1  0
 18 26  1  0
 16 27  1  0
 14 28  1  0
 12 29  1  0
 29 30  1  0
 30 31  1  0
 31 32  1  0
 31 33  1  0
 31 34  1  0
 30 35  1  1
 29 36  1  0
 29 37  1  0
  9 38  1  0
 38 39  2  0
 39 40  1  0
 40 41  1  0
 40 42  2  0
 42 43  1  0
 43 44  2  0
 44 45  1  0
 45 46  2  0
 43 47  1  0
 42 48  1  0
 39 49  1  0
  8 50  1  0
  8 51  1  0
  6 52  1  0
  6 53  1  0
  3 54  1  0
  2 55  1  0
  2 56  1  0
  1 57  1  0
  1 58  1  0
  1 59  1  0
 45  7  1  0
 30  9  1  0
 44 38  1  0
 22 13  1  0
 22 17  1  0
M  END
>  <cnnaffinities>  (51) 
[6.43747]

>  <score>  (51) 
6.43747

>  <index>  (51) 
53

>  <Smiles>  (51) 
C(C(N(C(=O)C(N1C([C@@]2(C(=O)N(c3c(nc(c4c(c(c(c(c34)[H])[H])[H])[H])[H])[H])C([C@@]2(C([H])([H])[H])[H])([H])[H])c2c(c(Cl)c(c(c2C1=O)[H])[H])[H])([H])[H])([H])[H])[H])([H])[H])([H])([H])[H]

>  <h>  (51) 
<NA>

>  <Training>  (51) 
True

>  <Success>  (51) 
True

>  <enamine_searched>  (51) 
False

>  <enamine_id>  (51) 
nan

$$$$

     RDKit          3D

 40 43  0  0  0  0  0  0  0  0999 V2000
   -9.5740   -1.3390  -24.0575 C   0  0  0  0  0  0  0  0  0  0  0  0
   -8.7815   -1.6256  -22.8766 N   0  0  0  0  0  0  0  0  0  0  0  0
   -8.4642   -2.8435  -22.3326 C   0  0  0  0  0  0  0  0  0  0  0  0
   -8.9105   -4.1511  -22.9022 C   0  0  0  0  0  0  0  0  0  0  0  0
   -8.0826   -4.5385  -24.1089 C   0  0  0  0  0  0  0  0  0  0  0  0
   -8.5952   -4.4427  -25.3994 C   0  0  0  0  0  0  0  0  0  0  0  0
   -7.8115   -4.7741  -26.5009 C   0  0  0  0  0  0  0  0  0  0  0  0
   -6.5004   -5.1997  -26.3159 C   0  0  0  0  0  0  0  0  0  0  0  0
   -5.9772   -5.2873  -25.0288 C   0  0  0  0  0  0  0  0  0  0  0  0
   -6.7628   -4.9513  -23.9320 C   0  0  0  0  0  0  0  0  0  0  0  0
   -6.3517   -5.0125  -22.9271 H   0  0  0  0  0  0  0  0  0  0  0  0
   -4.9529   -5.6196  -24.8834 H   0  0  0  0  0  0  0  0  0  0  0  0
   -5.8881   -5.4615  -27.1740 H   0  0  0  0  0  0  0  0  0  0  0  0
   -8.2277   -4.7041  -27.5016 H   0  0  0  0  0  0  0  0  0  0  0  0
   -9.6184   -4.1043  -25.5462 H   0  0  0  0  0  0  0  0  0  0  0  0
   -9.9754   -4.1085  -23.1624 H   0  0  0  0  0  0  0  0  0  0  0  0
   -8.8077   -4.8948  -22.1066 H   0  0  0  0  0  0  0  0  0  0  0  0
   -7.6553   -2.7304  -21.3209 N   0  0  0  0  0  0  0  0  0  0  0  0
   -7.4043   -1.3862  -21.2123 N   0  0  0  0  0  0  0  0  0  0  0  0
   -6.5808   -0.8353  -20.1828 C   0  0  0  0  0  0  0  0  0  0  0  0
   -6.8887   -1.0586  -18.8629 C   0  0  0  0  0  0  0  0  0  0  0  0
   -6.2007   -0.5387  -17.8150 N   0  0  0  0  0  0  0  0  0  0  0  0
   -5.1622    0.2205  -18.0722 C   0  0  0  0  0  0  0  0  0  0  0  0
   -4.7226    0.5308  -19.3886 C   0  0  0  0  0  0  0  0  0  0  0  0
   -3.5872    1.3561  -19.6249 C   0  0  0  0  0  0  0  0  0  0  0  0
   -3.1789    1.6142  -20.9049 C   0  0  0  0  0  0  0  0  0  0  0  0
   -3.8774    1.0548  -21.9984 C   0  0  0  0  0  0  0  0  0  0  0  0
   -4.9717    0.2546  -21.7943 C   0  0  0  0  0  0  0  0  0  0  0  0
   -5.4400   -0.0136  -20.4791 C   0  0  0  0  0  0  0  0  0  0  0  0
   -5.5006   -0.1719  -22.6386 H   0  0  0  0  0  0  0  0  0  0  0  0
   -3.5467    1.2608  -23.0112 H   0  0  0  0  0  0  0  0  0  0  0  0
   -2.3172    2.2463  -21.0972 H   0  0  0  0  0  0  0  0  0  0  0  0
   -3.0483    1.7728  -18.7772 H   0  0  0  0  0  0  0  0  0  0  0  0
   -4.6053    0.6231  -17.2216 H   0  0  0  0  0  0  0  0  0  0  0  0
   -7.7387   -1.6779  -18.5924 H   0  0  0  0  0  0  0  0  0  0  0  0
   -8.1148   -0.6457  -22.1481 C   0  0  0  0  0  0  0  0  0  0  0  0
   -8.1400    0.5564  -22.3063 O   0  0  0  0  0  0  0  0  0  0  0  0
   -9.0054   -1.4808  -24.9818 H   0  0  0  0  0  0  0  0  0  0  0  0
   -9.8961   -0.3001  -24.0230 H   0  0  0  0  0  0  0  0  0  0  0  0
  -10.4718   -1.9608  -24.1008 H   0  0  0  0  0  0  0  0  0  0  0  0
  1  2  1  0
  2  3  1  0
  3  4  1  0
  4  5  1  0
  5  6  2  0
  6  7  1  0
  7  8  2  0
  8  9  1  0
  9 10  2  0
 10 11  1  0
  9 12  1  0
  8 13  1  0
  7 14  1  0
  6 15  1  0
  4 16  1  0
  4 17  1  0
  3 18  2  0
 18 19  1  0
 19 20  1  0
 20 21  2  0
 21 22  1  0
 22 23  2  0
 23 24  1  0
 24 25  2  0
 25 26  1  0
 26 27  2  0
 27 28  1  0
 28 29  2  0
 28 30  1  0
 27 31  1  0
 26 32  1  0
 25 33  1  0
 23 34  1  0
 21 35  1  0
 19 36  1  0
 36 37  2  0
  1 38  1  0
  1 39  1  0
  1 40  1  0
 36  2  1  0
 10  5  1  0
 29 20  1  0
 29 24  1  0
M  END
>  <cnnaffinities>  (52) 
[5.05347, 5.05363, 5.16372, 5.1636]

>  <score>  (52) 
5.05347

>  <index>  (52) 
54

>  <Smiles>  (52) 
C(n1c(C(c2c(c(c(c(c2[H])[H])[H])[H])[H])([H])[H])nn(c2c(nc(c3c(c(c(c(c23)[H])[H])[H])[H])[H])[H])c1=O)([H])([H])[H]

>  <h>  (52) 
<NA>

>  <Training>  (52) 
True

>  <Success>  (52) 
True

>  <enamine_searched>  (52) 
False

>  <enamine_id>  (52) 
nan

$$$$

     RDKit          3D

 61 66  0  0  0  0  0  0  0  0999 V2000
  -10.3807   -1.2323  -25.6973 C   0  0  0  0  0  0  0  0  0  0  0  0
  -10.9014   -1.6105  -24.4520 O   0  0  0  0  0  0  0  0  0  0  0  0
  -10.4259   -0.8372  -23.3680 C   0  0  0  0  0  0  0  0  0  0  0  0
   -9.0249   -1.2794  -22.9405 C   0  0  1  0  0  0  0  0  0  0  0  0
   -8.4271   -0.3892  -21.8463 C   0  0  0  0  0  0  0  0  0  0  0  0
   -7.4371   -1.2553  -21.2284 N   0  0  0  0  0  0  0  0  0  0  0  0
   -6.6011   -0.8226  -20.1726 C   0  0  0  0  0  0  0  0  0  0  0  0
   -6.9051   -1.1021  -18.8655 C   0  0  0  0  0  0  0  0  0  0  0  0
   -6.2284   -0.5937  -17.8025 N   0  0  0  0  0  0  0  0  0  0  0  0
   -5.2034    0.1823  -18.0572 C   0  0  0  0  0  0  0  0  0  0  0  0
   -4.7492    0.5106  -19.3677 C   0  0  0  0  0  0  0  0  0  0  0  0
   -3.6148    1.3288  -19.6055 C   0  0  0  0  0  0  0  0  0  0  0  0
   -3.2202    1.6059  -20.8845 C   0  0  0  0  0  0  0  0  0  0  0  0
   -3.9272    1.0760  -21.9882 C   0  0  0  0  0  0  0  0  0  0  0  0
   -5.0249    0.2797  -21.7846 C   0  0  0  0  0  0  0  0  0  0  0  0
   -5.4660   -0.0095  -20.4681 C   0  0  0  0  0  0  0  0  0  0  0  0
   -5.5679   -0.1354  -22.6278 H   0  0  0  0  0  0  0  0  0  0  0  0
   -3.6060    1.3112  -22.9987 H   0  0  0  0  0  0  0  0  0  0  0  0
   -2.3597    2.2414  -21.0687 H   0  0  0  0  0  0  0  0  0  0  0  0
   -3.0760    1.7344  -18.7527 H   0  0  0  0  0  0  0  0  0  0  0  0
   -4.6734    0.5980  -17.1988 H   0  0  0  0  0  0  0  0  0  0  0  0
   -7.7364   -1.7611  -18.6241 H   0  0  0  0  0  0  0  0  0  0  0  0
   -7.6616   -2.5927  -21.4598 C   0  0  0  0  0  0  0  0  0  0  0  0
   -6.9712   -3.4839  -21.0085 O   0  0  0  0  0  0  0  0  0  0  0  0
   -8.8793   -2.7434  -22.3839 C   0  0  1  0  0  0  0  0  0  0  0  0
  -10.0746   -3.1780  -21.4903 C   0  0  0  0  0  0  0  0  0  0  0  0
  -11.2493   -3.6578  -22.2153 N   0  0  0  0  0  0  0  0  0  0  0  0
  -12.5945   -3.5979  -21.6151 C   0  0  0  0  0  0  0  0  0  0  0  0
  -13.5132   -2.5366  -22.1586 C   0  0  0  0  0  0  0  0  0  0  0  0
  -13.9875   -1.3411  -21.7216 C   0  0  0  0  0  0  0  0  0  0  0  0
  -14.8561   -0.8634  -22.6879 N   0  0  0  0  0  4  0  0  0  0  0  0
  -14.9068   -1.7532  -23.6912 C   0  0  0  0  0  0  0  0  0  0  0  0
  -14.1213   -2.7788  -23.3686 N   0  0  0  0  0  0  0  0  0  0  0  0
  -14.0238   -3.6764  -23.8364 H   0  0  0  0  0  0  0  0  0  0  0  0
  -15.4601   -1.6690  -24.6105 H   0  0  0  0  0  0  0  0  0  0  0  0
  -15.4152   -0.0240  -22.5927 H   0  0  0  0  0  0  0  0  0  0  0  0
  -13.8001   -0.7660  -20.8279 H   0  0  0  0  0  0  0  0  0  0  0  0
  -13.0882   -4.5452  -21.8497 H   0  0  0  0  0  0  0  0  0  0  0  0
  -12.5306   -3.5312  -20.5291 H   0  0  0  0  0  0  0  0  0  0  0  0
  -11.1144   -4.4226  -23.3375 C   0  0  0  0  0  0  0  0  0  0  0  0
  -12.0717   -4.9432  -23.9016 O   0  0  0  0  0  0  0  0  0  0  0  0
   -9.7243   -4.5952  -23.8698 C   0  0  0  0  0  0  0  0  0  0  0  0
   -9.5379   -5.5835  -24.8306 C   0  0  0  0  0  0  0  0  0  0  0  0
   -8.2801   -5.8524  -25.3359 C   0  0  0  0  0  0  0  0  0  0  0  0
   -7.2038   -5.0878  -24.8857 C   0  0  0  0  0  0  0  0  0  0  0  0
   -5.6037   -5.4368  -25.4891 Cl  0  0  0  0  0  0  0  0  0  0  0  0
   -7.3808   -4.0591  -23.9763 C   0  0  0  0  0  0  0  0  0  0  0  0
   -8.6507   -3.8173  -23.4258 C   0  0  0  0  0  0  0  0  0  0  0  0
   -6.5200   -3.4703  -23.6752 H   0  0  0  0  0  0  0  0  0  0  0  0
   -8.1261   -6.6375  -26.0708 H   0  0  0  0  0  0  0  0  0  0  0  0
  -10.4122   -6.1238  -25.1805 H   0  0  0  0  0  0  0  0  0  0  0  0
  -10.3791   -2.3220  -20.8847 H   0  0  0  0  0  0  0  0  0  0  0  0
   -9.7027   -3.9535  -20.8103 H   0  0  0  0  0  0  0  0  0  0  0  0
   -9.1807   -0.0729  -21.1070 H   0  0  0  0  0  0  0  0  0  0  0  0
   -7.9530    0.5160  -22.2396 H   0  0  0  0  0  0  0  0  0  0  0  0
   -8.3696   -1.2233  -23.8212 H   0  0  0  0  0  0  0  0  0  0  0  0
  -10.4325    0.2415  -23.6184 H   0  0  0  0  0  0  0  0  0  0  0  0
  -11.1473   -0.9956  -22.5589 H   0  0  0  0  0  0  0  0  0  0  0  0
   -9.2962   -1.0629  -25.6656 H   0  0  0  0  0  0  0  0  0  0  0  0
  -10.5617   -2.0628  -26.3863 H   0  0  0  0  0  0  0  0  0  0  0  0
  -10.8546   -0.3150  -26.0819 H   0  0  0  0  0  0  0  0  0  0  0  0
  1  2  1  0
  2  3  1  0
  3  4  1  0
  4  5  1  0
  5  6  1  0
  6  7  1  0
  7  8  2  0
  8  9  1  0
  9 10  2  0
 10 11  1  0
 11 12  2  0
 12 13  1  0
 13 14  2  0
 14 15  1  0
 15 16  2  0
 15 17  1  0
 14 18  1  0
 13 19  1  0
 12 20  1  0
 10 21  1  0
  8 22  1  0
  6 23  1  0
 23 24  2  0
 23 25  1  0
 25 26  1  1
 26 27  1  0
 27 28  1  0
 28 29  1  0
 29 30  2  0
 30 31  1  0
 31 32  2  0
 32 33  1  0
 33 34  1  0
 32 35  1  0
 31 36  1  0
 30 37  1  0
 28 38  1  0
 28 39  1  0
 27 40  1  0
 40 41  2  0
 40 42  1  0
 42 43  2  0
 43 44  1  0
 44 45  2  0
 45 46  1  0
 45 47  1  0
 47 48  2  0
 47 49  1  0
 44 50  1  0
 43 51  1  0
 26 52  1  0
 26 53  1  0
  5 54  1  0
  5 55  1  0
  4 56  1  6
  3 57  1  0
  3 58  1  0
  1 59  1  0
  1 60  1  0
  1 61  1  0
 25  4  1  0
 33 29  1  0
 48 42  1  0
 16  7  1  0
 48 25  1  0
 16 11  1  0
M  CHG  1  31   1
M  END
>  <cnnaffinities>  (53) 
[6.59556, 6.46552]

>  <score>  (53) 
6.59556

>  <index>  (53) 
55

>  <Smiles>  (53) 
C(OC([C@]1(C(N(c2c(nc(c3c(c(c(c(c23)[H])[H])[H])[H])[H])[H])C(=O)[C@]21C(N(C(c1c([n+](c(n1[H])[H])[H])[H])([H])[H])C(=O)c1c(c(c(Cl)c(c21)[H])[H])[H])([H])[H])([H])[H])[H])([H])[H])([H])([H])[H]

>  <h>  (53) 
<NA>

>  <Training>  (53) 
True

>  <Success>  (53) 
True

>  <enamine_searched>  (53) 
False

>  <enamine_id>  (53) 
nan

$$$$

     RDKit          3D

 57 62  0  0  0  0  0  0  0  0999 V2000
   -7.4885   -3.4882  -23.8117 C   0  0  0  0  0  0  0  0  0  0  0  0
   -8.3752   -2.8987  -22.7136 C   0  0  1  0  0  0  0  0  0  0  0  0
   -7.6238   -2.7562  -21.3750 C   0  0  0  0  0  0  0  0  0  0  0  0
   -7.3656   -1.3430  -21.2522 N   0  0  0  0  0  0  0  0  0  0  0  0
   -6.5862   -0.8036  -20.2030 C   0  0  0  0  0  0  0  0  0  0  0  0
   -6.8967   -1.0598  -18.8905 C   0  0  0  0  0  0  0  0  0  0  0  0
   -6.2217   -0.5545  -17.8265 N   0  0  0  0  0  0  0  0  0  0  0  0
   -5.1817    0.2033  -18.0853 C   0  0  0  0  0  0  0  0  0  0  0  0
   -4.7302    0.5147  -19.4008 C   0  0  0  0  0  0  0  0  0  0  0  0
   -3.5926    1.3336  -19.6275 C   0  0  0  0  0  0  0  0  0  0  0  0
   -3.1714    1.5999  -20.9011 C   0  0  0  0  0  0  0  0  0  0  0  0
   -3.8632    1.0632  -22.0084 C   0  0  0  0  0  0  0  0  0  0  0  0
   -4.9828    0.2924  -21.8219 C   0  0  0  0  0  0  0  0  0  0  0  0
   -5.4446    0.0003  -20.5053 C   0  0  0  0  0  0  0  0  0  0  0  0
   -5.5285   -0.0785  -22.6844 H   0  0  0  0  0  0  0  0  0  0  0  0
   -3.5141    1.2767  -23.0163 H   0  0  0  0  0  0  0  0  0  0  0  0
   -2.3086    2.2348  -21.0790 H   0  0  0  0  0  0  0  0  0  0  0  0
   -3.0685    1.7425  -18.7699 H   0  0  0  0  0  0  0  0  0  0  0  0
   -4.6280    0.6094  -17.2366 H   0  0  0  0  0  0  0  0  0  0  0  0
   -7.7614   -1.6783  -18.6486 H   0  0  0  0  0  0  0  0  0  0  0  0
   -8.2102   -0.5692  -22.0225 C   0  0  0  0  0  0  0  0  0  0  0  0
   -8.3078    0.6320  -21.9444 O   0  0  0  0  0  0  0  0  0  0  0  0
   -8.9865   -1.4897  -22.9894 C   0  0  1  0  0  0  0  0  0  0  0  0
   -8.8098   -1.0208  -24.4529 C   0  0  0  0  0  0  0  0  0  0  0  0
   -9.4737    0.2373  -24.7233 N   0  0  0  0  0  0  0  0  0  0  0  0
   -8.7771    1.2867  -25.4424 C   0  0  0  0  0  0  0  0  0  0  0  0
   -8.2204    2.3325  -24.5133 C   0  0  0  0  0  0  0  0  0  0  0  0
   -6.9227    2.2643  -24.2151 N   0  0  0  0  0  0  0  0  0  0  0  0
   -6.4701    3.2669  -23.4598 C   0  0  0  0  0  0  0  0  0  0  0  0
   -7.2727    4.2866  -22.9888 C   0  0  0  0  0  0  0  0  0  0  0  0
   -8.6218    4.1906  -23.2852 C   0  0  0  0  0  0  0  0  0  0  0  0
   -9.1049    3.2257  -24.0570 N   0  0  0  0  0  0  0  0  0  0  0  0
   -9.3360    4.9186  -22.9097 H   0  0  0  0  0  0  0  0  0  0  0  0
   -6.8651    5.0916  -22.3888 H   0  0  0  0  0  0  0  0  0  0  0  0
   -5.4078    3.2485  -23.2385 H   0  0  0  0  0  0  0  0  0  0  0  0
   -9.5091    1.7388  -26.1149 H   0  0  0  0  0  0  0  0  0  0  0  0
   -7.9728    0.8286  -26.0225 H   0  0  0  0  0  0  0  0  0  0  0  0
  -10.7617    0.4746  -24.3298 C   0  0  0  0  0  0  0  0  0  0  0  0
  -11.4310    1.3988  -24.7623 O   0  0  0  0  0  0  0  0  0  0  0  0
  -11.3002   -0.4611  -23.2989 C   0  0  0  0  0  0  0  0  0  0  0  0
  -12.6456   -0.3183  -22.9482 C   0  0  0  0  0  0  0  0  0  0  0  0
  -13.2466   -1.2150  -22.0834 C   0  0  0  0  0  0  0  0  0  0  0  0
  -12.4370   -2.2273  -21.5737 C   0  0  0  0  0  0  0  0  0  0  0  0
  -12.9806   -3.1807  -20.7993 F   0  0  0  0  0  0  0  0  0  0  0  0
  -11.0739   -2.2887  -21.7699 C   0  0  0  0  0  0  0  0  0  0  0  0
  -10.4809   -1.4216  -22.6909 C   0  0  0  0  0  0  0  0  0  0  0  0
  -10.5146   -3.0390  -21.2169 H   0  0  0  0  0  0  0  0  0  0  0  0
  -14.3000   -1.1647  -21.8128 H   0  0  0  0  0  0  0  0  0  0  0  0
  -13.2071    0.5030  -23.3844 H   0  0  0  0  0  0  0  0  0  0  0  0
   -9.2344   -1.7918  -25.1051 H   0  0  0  0  0  0  0  0  0  0  0  0
   -7.7490   -0.9132  -24.6879 H   0  0  0  0  0  0  0  0  0  0  0  0
   -6.6806   -3.3107  -21.3530 H   0  0  0  0  0  0  0  0  0  0  0  0
   -8.2444   -3.1049  -20.5434 H   0  0  0  0  0  0  0  0  0  0  0  0
   -9.1872   -3.6208  -22.6065 H   0  0  0  0  0  0  0  0  0  0  0  0
   -6.6157   -2.8649  -24.0267 H   0  0  0  0  0  0  0  0  0  0  0  0
   -8.0524   -3.6298  -24.7384 H   0  0  0  0  0  0  0  0  0  0  0  0
   -7.1316   -4.4770  -23.5060 H   0  0  0  0  0  0  0  0  0  0  0  0
  1  2  1  0
  2  3  1  0
  3  4  1  0
  4  5  1  0
  5  6  2  0
  6  7  1  0
  7  8  2  0
  8  9  1  0
  9 10  2  0
 10 11  1  0
 11 12  2  0
 12 13  1  0
 13 14  2  0
 13 15  1  0
 12 16  1  0
 11 17  1  0
 10 18  1  0
  8 19  1  0
  6 20  1  0
  4 21  1  0
 21 22  2  0
 21 23  1  0
 23 24  1  6
 24 25  1  0
 25 26  1  0
 26 27  1  0
 27 28  2  0
 28 29  1  0
 29 30  2  0
 30 31  1  0
 31 32  2  0
 31 33  1  0
 30 34  1  0
 29 35  1  0
 26 36  1  0
 26 37  1  0
 25 38  1  0
 38 39  2  0
 38 40  1  0
 40 41  2  0
 41 42  1  0
 42 43  2  0
 43 44  1  0
 43 45  1  0
 45 46  2  0
 45 47  1  0
 42 48  1  0
 41 49  1  0
 24 50  1  0
 24 51  1  0
  3 52  1  0
  3 53  1  0
  2 54  1  1
  1 55  1  0
  1 56  1  0
  1 57  1  0
 23  2  1  0
 32 27  1  0
 46 40  1  0
 14  5  1  0
 46 23  1  0
 14  9  1  0
M  END
>  <cnnaffinities>  (54) 
[6.06227, 6.08265]

>  <score>  (54) 
6.06227

>  <index>  (54) 
56

>  <Smiles>  (54) 
C([C@]1(C(N(c2c(nc(c3c(c(c(c(c23)[H])[H])[H])[H])[H])[H])C(=O)[C@]21C(N(C(c1nc(c(c(n1)[H])[H])[H])([H])[H])C(=O)c1c(c(c(F)c(c21)[H])[H])[H])([H])[H])([H])[H])[H])([H])([H])[H]

>  <h>  (54) 
<NA>

>  <Training>  (54) 
True

>  <Success>  (54) 
True

>  <enamine_searched>  (54) 
False

>  <enamine_id>  (54) 
nan

$$$$

     RDKit          3D

 59 63  0  0  0  0  0  0  0  0999 V2000
  -14.4965   -1.2815  -23.4951 C   0  0  0  0  0  0  0  0  0  0  0  0
  -13.7995   -2.4857  -23.1027 N   0  0  0  0  0  0  0  0  0  0  0  0
  -13.4619   -2.6225  -21.7966 C   0  0  0  0  0  0  0  0  0  0  0  0
  -13.8954   -1.8977  -20.9137 O   0  0  0  0  0  0  0  0  0  0  0  0
  -12.5358   -3.7955  -21.5373 C   0  0  0  0  0  0  0  0  0  0  0  0
  -11.2074   -3.7785  -22.1574 N   0  0  0  0  0  0  0  0  0  0  0  0
  -10.0450   -3.3130  -21.4061 C   0  0  0  0  0  0  0  0  0  0  0  0
   -8.8207   -2.9508  -22.2880 C   0  0  2  0  0  0  0  0  0  0  0  0
   -7.5821   -2.7139  -21.4028 C   0  0  0  0  0  0  0  0  0  0  0  0
   -6.8226   -3.5585  -20.9731 O   0  0  0  0  0  0  0  0  0  0  0  0
   -7.4006   -1.3596  -21.2281 N   0  0  0  0  0  0  0  0  0  0  0  0
   -6.5916   -0.8402  -20.1837 C   0  0  0  0  0  0  0  0  0  0  0  0
   -6.9066   -1.0748  -18.8673 C   0  0  0  0  0  0  0  0  0  0  0  0
   -6.2291   -0.5517  -17.8117 N   0  0  0  0  0  0  0  0  0  0  0  0
   -5.1914    0.2044  -18.0775 C   0  0  0  0  0  0  0  0  0  0  0  0
   -4.7440    0.5123  -19.3952 C   0  0  0  0  0  0  0  0  0  0  0  0
   -3.6112    1.3333  -19.6327 C   0  0  0  0  0  0  0  0  0  0  0  0
   -3.2103    1.6086  -20.9117 C   0  0  0  0  0  0  0  0  0  0  0  0
   -3.9161    1.0712  -22.0121 C   0  0  0  0  0  0  0  0  0  0  0  0
   -5.0174    0.2752  -21.8092 C   0  0  0  0  0  0  0  0  0  0  0  0
   -5.4618   -0.0175  -20.4907 C   0  0  0  0  0  0  0  0  0  0  0  0
   -5.5568   -0.1320  -22.6591 H   0  0  0  0  0  0  0  0  0  0  0  0
   -3.5927    1.3039  -23.0231 H   0  0  0  0  0  0  0  0  0  0  0  0
   -2.3537    2.2519  -21.0945 H   0  0  0  0  0  0  0  0  0  0  0  0
   -3.0797    1.7430  -18.7789 H   0  0  0  0  0  0  0  0  0  0  0  0
   -4.6428    0.6225  -17.2308 H   0  0  0  0  0  0  0  0  0  0  0  0
   -7.7501   -1.7157  -18.6180 H   0  0  0  0  0  0  0  0  0  0  0  0
   -8.4016   -0.5682  -21.9179 C   0  0  0  0  0  0  0  0  0  0  0  0
   -9.0082   -1.5291  -22.9685 C   0  0  0  0  0  0  0  0  0  0  0  0
  -10.4643   -1.1504  -23.2513 C   0  0  0  0  0  0  0  0  0  0  0  0
  -11.0606   -1.1010  -22.3357 H   0  0  0  0  0  0  0  0  0  0  0  0
  -10.9278   -1.8824  -23.9184 H   0  0  0  0  0  0  0  0  0  0  0  0
  -10.5134   -0.1671  -23.7253 H   0  0  0  0  0  0  0  0  0  0  0  0
   -8.2337   -1.4567  -24.2900 C   0  0  0  0  0  0  0  0  0  0  0  0
   -8.6494   -2.1788  -24.9995 H   0  0  0  0  0  0  0  0  0  0  0  0
   -8.3207   -0.4606  -24.7305 H   0  0  0  0  0  0  0  0  0  0  0  0
   -7.1704   -1.6888  -24.1626 H   0  0  0  0  0  0  0  0  0  0  0  0
   -7.9575    0.3201  -22.3762 H   0  0  0  0  0  0  0  0  0  0  0  0
   -9.1695   -0.2179  -21.2132 H   0  0  0  0  0  0  0  0  0  0  0  0
   -8.5775   -4.1098  -23.2288 C   0  0  0  0  0  0  0  0  0  0  0  0
   -7.2949   -4.4579  -23.6696 C   0  0  0  0  0  0  0  0  0  0  0  0
   -7.1324   -5.4521  -24.6178 C   0  0  0  0  0  0  0  0  0  0  0  0
   -5.5350   -5.7969  -25.2216 Cl  0  0  0  0  0  0  0  0  0  0  0  0
   -8.2189   -6.1533  -25.1373 C   0  0  0  0  0  0  0  0  0  0  0  0
   -9.4869   -5.8106  -24.7081 C   0  0  0  0  0  0  0  0  0  0  0  0
   -9.6621   -4.8046  -23.7582 C   0  0  0  0  0  0  0  0  0  0  0  0
  -11.0512   -4.5131  -23.2990 C   0  0  0  0  0  0  0  0  0  0  0  0
  -12.0145   -4.9354  -23.9293 O   0  0  0  0  0  0  0  0  0  0  0  0
  -10.3692   -6.3172  -25.0874 H   0  0  0  0  0  0  0  0  0  0  0  0
   -8.0654   -6.9292  -25.8791 H   0  0  0  0  0  0  0  0  0  0  0  0
   -6.4266   -3.9405  -23.2859 H   0  0  0  0  0  0  0  0  0  0  0  0
  -10.3237   -2.4336  -20.8225 H   0  0  0  0  0  0  0  0  0  0  0  0
   -9.7363   -4.0901  -20.7128 H   0  0  0  0  0  0  0  0  0  0  0  0
  -12.4932   -3.9097  -20.4600 H   0  0  0  0  0  0  0  0  0  0  0  0
  -13.0574   -4.6467  -21.9702 H   0  0  0  0  0  0  0  0  0  0  0  0
  -13.6500   -3.2735  -23.7187 H   0  0  0  0  0  0  0  0  0  0  0  0
  -13.8131   -0.4215  -23.4684 H   0  0  0  0  0  0  0  0  0  0  0  0
  -14.8902   -1.3657  -24.5093 H   0  0  0  0  0  0  0  0  0  0  0  0
  -15.3183   -1.0841  -22.7992 H   0  0  0  0  0  0  0  0  0  0  0  0
  1  2  1  0
  2  3  1  0
  3  4  2  0
  3  5  1  0
  5  6  1  0
  6  7  1  0
  8  7  1  1
  8  9  1  0
  9 10  2  0
  9 11  1  0
 11 12  1  0
 12 13  2  0
 13 14  1  0
 14 15  2  0
 15 16  1  0
 16 17  2  0
 17 18  1  0
 18 19  2  0
 19 20  1  0
 20 21  2  0
 20 22  1  0
 19 23  1  0
 18 24  1  0
 17 25  1  0
 15 26  1  0
 13 27  1  0
 11 28  1  0
 28 29  1  0
 29 30  1  0
 30 31  1  0
 30 32  1  0
 30 33  1  0
 29 34  1  0
 34 35  1  0
 34 36  1  0
 34 37  1  0
 28 38  1  0
 28 39  1  0
  8 40  1  0
 40 41  2  0
 41 42  1  0
 42 43  1  0
 42 44  2  0
 44 45  1  0
 45 46  2  0
 46 47  1  0
 47 48  2  0
 45 49  1  0
 44 50  1  0
 41 51  1  0
  7 52  1  0
  7 53  1  0
  5 54  1  0
  5 55  1  0
  2 56  1  0
  1 57  1  0
  1 58  1  0
  1 59  1  0
 47  6  1  0
 29  8  1  0
 46 40  1  0
 21 12  1  0
 21 16  1  0
M  END
>  <cnnaffinities>  (55) 
[6.31419]

>  <score>  (55) 
6.31419

>  <index>  (55) 
57

>  <Smiles>  (55) 
C(N(C(=O)C(N1C([C@@]2(C(=O)N(c3c(nc(c4c(c(c(c(c34)[H])[H])[H])[H])[H])[H])C(C2(C([H])([H])[H])C([H])([H])[H])([H])[H])c2c(c(Cl)c(c(c2C1=O)[H])[H])[H])([H])[H])([H])[H])[H])([H])([H])[H]

>  <h>  (55) 
<NA>

>  <Training>  (55) 
True

>  <Success>  (55) 
True

>  <enamine_searched>  (55) 
False

>  <enamine_id>  (55) 
nan

$$$$

     RDKit          3D

 42 45  0  0  0  0  0  0  0  0999 V2000
  -11.9940   -4.1180  -22.8292 C   0  0  0  0  0  0  0  0  0  0  0  0
  -10.5691   -4.3446  -22.9126 N   0  0  0  0  0  0  0  0  0  0  0  0
   -9.6702   -3.9069  -21.8566 C   0  0  0  0  0  0  0  0  0  0  0  0
   -8.5237   -3.0695  -22.4536 C   0  0  1  0  0  0  0  0  0  0  0  0
   -7.5292   -2.6359  -21.3925 C   0  0  0  0  0  0  0  0  0  0  0  0
   -6.8463   -3.4130  -20.7525 O   0  0  0  0  0  0  0  0  0  0  0  0
   -7.4240   -1.2774  -21.2089 N   0  0  0  0  0  0  0  0  0  0  0  0
   -6.6160   -0.7538  -20.1816 C   0  0  0  0  0  0  0  0  0  0  0  0
   -6.9123   -1.0338  -18.8720 C   0  0  0  0  0  0  0  0  0  0  0  0
   -6.2293   -0.5367  -17.8146 N   0  0  0  0  0  0  0  0  0  0  0  0
   -5.1912    0.2198  -18.0830 C   0  0  0  0  0  0  0  0  0  0  0  0
   -4.7465    0.5450  -19.3959 C   0  0  0  0  0  0  0  0  0  0  0  0
   -3.6015    1.3487  -19.6314 C   0  0  0  0  0  0  0  0  0  0  0  0
   -3.1972    1.6152  -20.9113 C   0  0  0  0  0  0  0  0  0  0  0  0
   -3.9039    1.0858  -22.0129 C   0  0  0  0  0  0  0  0  0  0  0  0
   -5.0175    0.3057  -21.8145 C   0  0  0  0  0  0  0  0  0  0  0  0
   -5.4695    0.0378  -20.4936 C   0  0  0  0  0  0  0  0  0  0  0  0
   -5.5470   -0.1053  -22.6681 H   0  0  0  0  0  0  0  0  0  0  0  0
   -3.5641    1.3024  -23.0222 H   0  0  0  0  0  0  0  0  0  0  0  0
   -2.3296    2.2444  -21.0901 H   0  0  0  0  0  0  0  0  0  0  0  0
   -3.0600    1.7355  -18.7760 H   0  0  0  0  0  0  0  0  0  0  0  0
   -4.6271    0.5974  -17.2327 H   0  0  0  0  0  0  0  0  0  0  0  0
   -7.7578   -1.6795  -18.6442 H   0  0  0  0  0  0  0  0  0  0  0  0
   -7.8145   -0.6385  -21.8897 H   0  0  0  0  0  0  0  0  0  0  0  0
   -7.8511   -3.8842  -23.5301 C   0  0  0  0  0  0  0  0  0  0  0  0
   -6.4968   -3.7455  -23.8364 C   0  0  0  0  0  0  0  0  0  0  0  0
   -5.9413   -4.5187  -24.8420 C   0  0  0  0  0  0  0  0  0  0  0  0
   -4.2857   -4.2625  -25.3121 Cl  0  0  0  0  0  0  0  0  0  0  0  0
   -6.6933   -5.4850  -25.5062 C   0  0  0  0  0  0  0  0  0  0  0  0
   -8.0329   -5.6284  -25.1910 C   0  0  0  0  0  0  0  0  0  0  0  0
   -8.6172   -4.8094  -24.2366 C   0  0  0  0  0  0  0  0  0  0  0  0
  -10.0943   -4.8968  -24.0688 C   0  0  0  0  0  0  0  0  0  0  0  0
  -10.8106   -5.4188  -24.9150 O   0  0  0  0  0  0  0  0  0  0  0  0
   -8.6646   -6.3601  -25.6841 H   0  0  0  0  0  0  0  0  0  0  0  0
   -6.2258   -6.0941  -26.2694 H   0  0  0  0  0  0  0  0  0  0  0  0
   -5.8782   -3.0616  -23.2650 H   0  0  0  0  0  0  0  0  0  0  0  0
   -8.9447   -2.1523  -22.8805 H   0  0  0  0  0  0  0  0  0  0  0  0
  -10.2418   -3.3133  -21.1396 H   0  0  0  0  0  0  0  0  0  0  0  0
   -9.2181   -4.7602  -21.3318 H   0  0  0  0  0  0  0  0  0  0  0  0
  -12.3601   -4.2668  -21.8148 H   0  0  0  0  0  0  0  0  0  0  0  0
  -12.4722   -4.8428  -23.4868 H   0  0  0  0  0  0  0  0  0  0  0  0
  -12.2626   -3.1009  -23.1412 H   0  0  0  0  0  0  0  0  0  0  0  0
  1  2  1  0
  2  3  1  0
  3  4  1  0
  4  5  1  0
  5  6  2  0
  5  7  1  0
  7  8  1  0
  8  9  2  0
  9 10  1  0
 10 11  2  0
 11 12  1  0
 12 13  2  0
 13 14  1  0
 14 15  2  0
 15 16  1  0
 16 17  2  0
 16 18  1  0
 15 19  1  0
 14 20  1  0
 13 21  1  0
 11 22  1  0
  9 23  1  0
  7 24  1  0
  4 25  1  0
 25 26  2  0
 26 27  1  0
 27 28  1  0
 27 29  2  0
 29 30  1  0
 30 31  2  0
 31 32  1  0
 32 33  2  0
 30 34  1  0
 29 35  1  0
 26 36  1  0
  4 37  1  6
  3 38  1  0
  3 39  1  0
  1 40  1  0
  1 41  1  0
  1 42  1  0
 32  2  1  0
 17  8  1  0
 31 25  1  0
 17 12  1  0
M  END
>  <cnnaffinities>  (56) 
[5.57661]

>  <score>  (56) 
5.57661

>  <index>  (56) 
58

>  <Smiles>  (56) 
C(N1C([C@@](C(=O)N(c2c(nc(c3c(c(c(c(c23)[H])[H])[H])[H])[H])[H])[H])(c2c(c(Cl)c(c(c2C1=O)[H])[H])[H])[H])([H])[H])([H])([H])[H]

>  <h>  (56) 
<NA>

>  <Training>  (56) 
True

>  <Success>  (56) 
True

>  <enamine_searched>  (56) 
False

>  <enamine_id>  (56) 
nan

$$$$

     RDKit          3D

 60 65  0  0  0  0  0  0  0  0999 V2000
   -7.7436    3.2659  -22.4617 C   0  0  0  0  0  0  0  0  0  0  0  0
   -8.5294    2.7309  -23.5489 N   0  0  0  0  0  0  0  0  0  0  0  0
   -7.9210    2.0673  -24.5592 C   0  0  0  0  0  0  0  0  0  0  0  0
   -6.7105    2.0371  -24.7106 O   0  0  0  0  0  0  0  0  0  0  0  0
   -8.9066    1.3079  -25.4534 C   0  0  0  0  0  0  0  0  0  0  0  0
   -9.5713    0.2615  -24.6870 N   0  0  0  0  0  0  0  0  0  0  0  0
   -8.7288   -0.8527  -24.2951 C   0  0  0  0  0  0  0  0  0  0  0  0
   -9.1402   -1.5370  -22.9576 C   0  0  2  0  0  0  0  0  0  0  0  0
   -8.5936   -0.7054  -21.7633 C   0  0  0  0  0  0  0  0  0  0  0  0
   -9.0408    0.3464  -21.3531 O   0  0  0  0  0  0  0  0  0  0  0  0
   -7.4900   -1.3463  -21.2393 N   0  0  0  0  0  0  0  0  0  0  0  0
   -6.6953   -0.7698  -20.2052 C   0  0  0  0  0  0  0  0  0  0  0  0
   -7.0005   -1.0136  -18.8898 C   0  0  0  0  0  0  0  0  0  0  0  0
   -6.2864   -0.5557  -17.8287 N   0  0  0  0  0  0  0  0  0  0  0  0
   -5.2218    0.1642  -18.0776 C   0  0  0  0  0  0  0  0  0  0  0  0
   -4.7782    0.4959  -19.3897 C   0  0  0  0  0  0  0  0  0  0  0  0
   -3.6196    1.2883  -19.6173 C   0  0  0  0  0  0  0  0  0  0  0  0
   -3.2392    1.6081  -20.8900 C   0  0  0  0  0  0  0  0  0  0  0  0
   -4.0015    1.1656  -21.9937 C   0  0  0  0  0  0  0  0  0  0  0  0
   -5.1324    0.4078  -21.7990 C   0  0  0  0  0  0  0  0  0  0  0  0
   -5.5410    0.0322  -20.4900 C   0  0  0  0  0  0  0  0  0  0  0  0
   -5.7412    0.1211  -22.6522 H   0  0  0  0  0  0  0  0  0  0  0  0
   -3.6994    1.4337  -23.0013 H   0  0  0  0  0  0  0  0  0  0  0  0
   -2.3584    2.2206  -21.0662 H   0  0  0  0  0  0  0  0  0  0  0  0
   -3.0494    1.6409  -18.7618 H   0  0  0  0  0  0  0  0  0  0  0  0
   -4.6543    0.5337  -17.2203 H   0  0  0  0  0  0  0  0  0  0  0  0
   -7.8679   -1.6198  -18.6453 H   0  0  0  0  0  0  0  0  0  0  0  0
   -7.1132   -2.5470  -21.9617 C   0  0  0  0  0  0  0  0  0  0  0  0
   -8.3738   -2.8777  -22.7773 C   0  0  2  0  0  0  0  0  0  0  0  0
   -8.0699   -3.6855  -24.0527 C   0  0  0  0  0  0  0  0  0  0  0  0
   -7.4868   -5.0105  -23.6951 C   0  0  0  0  0  0  0  0  0  0  0  0
   -8.1863   -6.0570  -23.2805 N   0  0  0  0  0  0  0  0  0  0  0  0
   -7.2750   -6.9762  -22.9783 N   0  0  0  0  0  0  0  0  0  0  0  0
   -6.0792   -6.4955  -23.2029 N   0  0  0  0  0  2  0  0  0  0  0  0
   -6.1826   -5.2509  -23.6604 N   0  0  0  0  0  0  0  0  0  0  0  0
   -7.3358   -3.1726  -24.6803 H   0  0  0  0  0  0  0  0  0  0  0  0
   -8.9857   -3.8343  -24.6311 H   0  0  0  0  0  0  0  0  0  0  0  0
   -8.9969   -3.5203  -22.1518 H   0  0  0  0  0  0  0  0  0  0  0  0
   -6.2336   -2.3912  -22.6075 H   0  0  0  0  0  0  0  0  0  0  0  0
   -6.8494   -3.3601  -21.2795 H   0  0  0  0  0  0  0  0  0  0  0  0
  -10.6551   -1.6301  -22.8608 C   0  0  0  0  0  0  0  0  0  0  0  0
  -11.2806   -2.5274  -21.9837 C   0  0  0  0  0  0  0  0  0  0  0  0
  -12.6585   -2.5532  -21.8625 C   0  0  0  0  0  0  0  0  0  0  0  0
  -13.4096   -3.7077  -20.8007 Cl  0  0  0  0  0  0  0  0  0  0  0  0
  -13.4757   -1.6689  -22.5625 C   0  0  0  0  0  0  0  0  0  0  0  0
  -12.8632   -0.7372  -23.3720 C   0  0  0  0  0  0  0  0  0  0  0  0
  -11.4757   -0.7048  -23.5203 C   0  0  0  0  0  0  0  0  0  0  0  0
  -10.8846    0.3983  -24.3483 C   0  0  0  0  0  0  0  0  0  0  0  0
  -11.5438    1.3767  -24.6819 O   0  0  0  0  0  0  0  0  0  0  0  0
  -13.4551    0.0053  -23.8914 H   0  0  0  0  0  0  0  0  0  0  0  0
  -14.5554   -1.7091  -22.4423 H   0  0  0  0  0  0  0  0  0  0  0  0
  -10.7109   -3.2011  -21.3551 H   0  0  0  0  0  0  0  0  0  0  0  0
   -8.6789   -1.5793  -25.1160 H   0  0  0  0  0  0  0  0  0  0  0  0
   -7.7212   -0.4468  -24.1766 H   0  0  0  0  0  0  0  0  0  0  0  0
   -8.3436    0.8906  -26.2889 H   0  0  0  0  0  0  0  0  0  0  0  0
   -9.6847    1.9626  -25.8499 H   0  0  0  0  0  0  0  0  0  0  0  0
   -9.4901    2.5137  -23.3523 H   0  0  0  0  0  0  0  0  0  0  0  0
   -8.3237    4.0156  -21.9127 H   0  0  0  0  0  0  0  0  0  0  0  0
   -6.8472    3.7300  -22.8774 H   0  0  0  0  0  0  0  0  0  0  0  0
   -7.4194    2.4628  -21.7843 H   0  0  0  0  0  0  0  0  0  0  0  0
  1  2  1  0
  2  3  1  0
  3  4  2  0
  3  5  1  0
  5  6  1  0
  6  7  1  0
  8  7  1  6
  8  9  1  0
  9 10  2  0
  9 11  1  0
 11 12  1  0
 12 13  2  0
 13 14  1  0
 14 15  2  0
 15 16  1  0
 16 17  2  0
 17 18  1  0
 18 19  2  0
 19 20  1  0
 20 21  2  0
 20 22  1  0
 19 23  1  0
 18 24  1  0
 17 25  1  0
 15 26  1  0
 13 27  1  0
 11 28  1  0
 28 29  1  0
 29 30  1  0
 30 31  1  0
 31 32  1  0
 32 33  2  0
 33 34  1  0
 34 35  1  0
 30 36  1  0
 30 37  1  0
 29 38  1  1
 28 39  1  0
 28 40  1  0
  8 41  1  0
 41 42  2  0
 42 43  1  0
 43 44  1  0
 43 45  2  0
 45 46  1  0
 46 47  2  0
 47 48  1  0
 48 49  2  0
 46 50  1  0
 45 51  1  0
 42 52  1  0
  7 53  1  0
  7 54  1  0
  5 55  1  0
  5 56  1  0
  2 57  1  0
  1 58  1  0
  1 59  1  0
  1 60  1  0
 48  6  1  0
 29  8  1  0
 35 31  2  0
 47 41  1  0
 21 12  1  0
 21 16  1  0
M  CHG  1  34  -1
M  END
>  <cnnaffinities>  (57) 
[6.65112, 6.66052]

>  <score>  (57) 
6.65112

>  <index>  (57) 
59

>  <Smiles>  (57) 
C(N(C(=O)C(N1C([C@@]2(C(=O)N(c3c(nc(c4c(c(c(c(c34)[H])[H])[H])[H])[H])[H])C([C@@]2(C(c2nn[n-]n2)([H])[H])[H])([H])[H])c2c(c(Cl)c(c(c2C1=O)[H])[H])[H])([H])[H])([H])[H])[H])([H])([H])[H]

>  <h>  (57) 
<NA>

>  <Training>  (57) 
True

>  <Success>  (57) 
True

>  <enamine_searched>  (57) 
False

>  <enamine_id>  (57) 
nan

$$$$

     RDKit          3D

 62 67  0  0  0  0  0  0  0  0999 V2000
  -11.3320    4.3032  -25.2506 C   0  0  0  0  0  0  0  0  0  0  0  0
   -9.8476    4.1560  -25.5864 C   0  0  0  0  0  0  0  0  0  0  0  0
   -9.0862    3.5681  -24.4964 N   0  0  0  0  0  0  0  0  0  0  0  0
   -8.5823    4.4189  -23.5947 N   0  0  0  0  0  0  0  0  0  0  0  0
   -8.0156    3.6596  -22.6759 C   0  0  0  0  0  0  0  0  0  0  0  0
   -8.1510    2.2921  -22.9887 C   0  0  0  0  0  0  0  0  0  0  0  0
   -8.8956    2.2646  -24.1449 C   0  0  0  0  0  0  0  0  0  0  0  0
   -9.3981    1.0860  -24.9349 C   0  0  0  0  0  0  0  0  0  0  0  0
   -9.8607   -0.0068  -24.0947 N   0  0  0  0  0  0  0  0  0  0  0  0
   -9.0403   -1.1983  -23.9793 C   0  0  0  0  0  0  0  0  0  0  0  0
   -9.2249   -1.9155  -22.6154 C   0  0  2  0  0  0  0  0  0  0  0  0
   -8.6625   -1.0277  -21.4697 C   0  0  0  0  0  0  0  0  0  0  0  0
   -9.2304   -0.1120  -20.9117 O   0  0  0  0  0  0  0  0  0  0  0  0
   -7.3754   -1.4355  -21.1920 N   0  0  0  0  0  0  0  0  0  0  0  0
   -6.6002   -0.8270  -20.1674 C   0  0  0  0  0  0  0  0  0  0  0  0
   -6.9088   -1.0464  -18.8471 C   0  0  0  0  0  0  0  0  0  0  0  0
   -6.2060   -0.5427  -17.8020 N   0  0  0  0  0  0  0  0  0  0  0  0
   -5.1663    0.2065  -18.0763 C   0  0  0  0  0  0  0  0  0  0  0  0
   -4.7304    0.5235  -19.3948 C   0  0  0  0  0  0  0  0  0  0  0  0
   -3.6062    1.3597  -19.6374 C   0  0  0  0  0  0  0  0  0  0  0  0
   -3.2283    1.6585  -20.9174 C   0  0  0  0  0  0  0  0  0  0  0  0
   -3.9545    1.1342  -22.0093 C   0  0  0  0  0  0  0  0  0  0  0  0
   -5.0462    0.3224  -21.7994 C   0  0  0  0  0  0  0  0  0  0  0  0
   -5.4637   -0.0084  -20.4823 C   0  0  0  0  0  0  0  0  0  0  0  0
   -5.6065   -0.0555  -22.6495 H   0  0  0  0  0  0  0  0  0  0  0  0
   -3.6578    1.3910  -23.0216 H   0  0  0  0  0  0  0  0  0  0  0  0
   -2.3799    2.3124  -21.1033 H   0  0  0  0  0  0  0  0  0  0  0  0
   -3.0673    1.7649  -18.7852 H   0  0  0  0  0  0  0  0  0  0  0  0
   -4.6133    0.6126  -17.2285 H   0  0  0  0  0  0  0  0  0  0  0  0
   -7.7566   -1.6739  -18.5834 H   0  0  0  0  0  0  0  0  0  0  0  0
   -6.9636   -2.6141  -21.9346 C   0  0  0  0  0  0  0  0  0  0  0  0
   -8.2907   -3.1604  -22.5105 C   0  0  2  0  0  0  0  0  0  0  0  0
   -8.0935   -3.9859  -23.7844 C   0  0  0  0  0  0  0  0  0  0  0  0
   -7.5533   -3.4118  -24.5484 H   0  0  0  0  0  0  0  0  0  0  0  0
   -7.5061   -4.8890  -23.5810 H   0  0  0  0  0  0  0  0  0  0  0  0
   -9.0501   -4.2982  -24.2195 H   0  0  0  0  0  0  0  0  0  0  0  0
   -8.7225   -3.8031  -21.7371 H   0  0  0  0  0  0  0  0  0  0  0  0
   -6.4649   -3.3291  -21.2697 H   0  0  0  0  0  0  0  0  0  0  0  0
   -6.2537   -2.3624  -22.7388 H   0  0  0  0  0  0  0  0  0  0  0  0
  -10.7168   -2.1460  -22.4260 C   0  0  0  0  0  0  0  0  0  0  0  0
  -11.2301   -3.2288  -21.7003 C   0  0  0  0  0  0  0  0  0  0  0  0
  -12.5879   -3.3016  -21.4570 C   0  0  0  0  0  0  0  0  0  0  0  0
  -13.0767   -4.2867  -20.6870 F   0  0  0  0  0  0  0  0  0  0  0  0
  -13.4872   -2.3610  -21.9352 C   0  0  0  0  0  0  0  0  0  0  0  0
  -12.9901   -1.2858  -22.6402 C   0  0  0  0  0  0  0  0  0  0  0  0
  -11.6202   -1.1706  -22.8825 C   0  0  0  0  0  0  0  0  0  0  0  0
  -11.1472    0.0361  -23.6411 C   0  0  0  0  0  0  0  0  0  0  0  0
  -11.8838    0.9872  -23.8609 O   0  0  0  0  0  0  0  0  0  0  0  0
  -13.6438   -0.5020  -23.0061 H   0  0  0  0  0  0  0  0  0  0  0  0
  -14.5413   -2.4888  -21.7210 H   0  0  0  0  0  0  0  0  0  0  0  0
  -10.5957   -3.9871  -21.2580 H   0  0  0  0  0  0  0  0  0  0  0  0
   -9.2949   -1.9051  -24.7846 H   0  0  0  0  0  0  0  0  0  0  0  0
   -7.9928   -0.8969  -24.0902 H   0  0  0  0  0  0  0  0  0  0  0  0
  -10.2126    1.3856  -25.6086 H   0  0  0  0  0  0  0  0  0  0  0  0
   -8.5735    0.6935  -25.5432 H   0  0  0  0  0  0  0  0  0  0  0  0
   -7.7933    1.4107  -22.4806 H   0  0  0  0  0  0  0  0  0  0  0  0
   -7.6416    4.1810  -21.8040 H   0  0  0  0  0  0  0  0  0  0  0  0
   -9.3849    5.1388  -25.7382 H   0  0  0  0  0  0  0  0  0  0  0  0
   -9.6875    3.5515  -26.4900 H   0  0  0  0  0  0  0  0  0  0  0  0
  -11.7781    3.3220  -25.0469 H   0  0  0  0  0  0  0  0  0  0  0  0
  -11.4724    4.9415  -24.3691 H   0  0  0  0  0  0  0  0  0  0  0  0
  -11.8492    4.7670  -26.0971 H   0  0  0  0  0  0  0  0  0  0  0  0
  1  2  1  0
  2  3  1  0
  3  4  1  0
  4  5  2  0
  5  6  1  0
  6  7  2  0
  7  8  1  0
  8  9  1  0
  9 10  1  0
 11 10  1  6
 11 12  1  0
 12 13  2  0
 12 14  1  0
 14 15  1  0
 15 16  2  0
 16 17  1  0
 17 18  2  0
 18 19  1  0
 19 20  2  0
 20 21  1  0
 21 22  2  0
 22 23  1  0
 23 24  2  0
 23 25  1  0
 22 26  1  0
 21 27  1  0
 20 28  1  0
 18 29  1  0
 16 30  1  0
 14 31  1  0
 31 32  1  0
 32 33  1  0
 33 34  1  0
 33 35  1  0
 33 36  1  0
 32 37  1  1
 31 38  1  0
 31 39  1  0
 11 40  1  0
 40 41  2  0
 41 42  1  0
 42 43  1  0
 42 44  2  0
 44 45  1  0
 45 46  2  0
 46 47  1  0
 47 48  2  0
 45 49  1  0
 44 50  1  0
 41 51  1  0
 10 52  1  0
 10 53  1  0
  8 54  1  0
  8 55  1  0
  6 56  1  0
  5 57  1  0
  2 58  1  0
  2 59  1  0
  1 60  1  0
  1 61  1  0
  1 62  1  0
  7  3  1  0
 47  9  1  0
 32 11  1  0
 46 40  1  0
 24 15  1  0
 24 19  1  0
M  END
>  <cnnaffinities>  (58) 
[6.7648]

>  <score>  (58) 
6.7648

>  <index>  (58) 
60

>  <Smiles>  (58) 
C(C(n1nc(c(c1C(N1C([C@@]2(C(=O)N(c3c(nc(c4c(c(c(c(c34)[H])[H])[H])[H])[H])[H])C([C@@]2(C([H])([H])[H])[H])([H])[H])c2c(c(F)c(c(c2C1=O)[H])[H])[H])([H])[H])([H])[H])[H])[H])([H])[H])([H])([H])[H]

>  <h>  (58) 
<NA>

>  <Training>  (58) 
True

>  <Success>  (58) 
True

>  <enamine_searched>  (58) 
False

>  <enamine_id>  (58) 
nan

$$$$

     RDKit          3D

 44 47  0  0  0  0  0  0  0  0999 V2000
   -8.8738    0.4467  -20.9732 O   0  0  0  0  0  0  0  0  0  0  0  0
   -8.2767   -0.2746  -21.7461 C   0  0  0  0  0  0  0  0  0  0  0  0
   -7.4506   -1.4459  -21.2119 C   0  0  0  0  0  0  0  0  0  0  0  0
   -6.5662   -0.9098  -20.1276 C   0  0  0  0  0  0  0  0  0  0  0  0
   -6.8974   -1.0870  -18.8101 C   0  0  0  0  0  0  0  0  0  0  0  0
   -6.2247   -0.5601  -17.7569 N   0  0  0  0  0  0  0  0  0  0  0  0
   -5.1824    0.1789  -18.0461 C   0  0  0  0  0  0  0  0  0  0  0  0
   -4.7375    0.4702  -19.3639 C   0  0  0  0  0  0  0  0  0  0  0  0
   -3.6124    1.2994  -19.5992 C   0  0  0  0  0  0  0  0  0  0  0  0
   -3.2288    1.6069  -20.8747 C   0  0  0  0  0  0  0  0  0  0  0  0
   -3.9545    1.0924  -21.9716 C   0  0  0  0  0  0  0  0  0  0  0  0
   -5.0430    0.2772  -21.7728 C   0  0  0  0  0  0  0  0  0  0  0  0
   -5.4616   -0.0670  -20.4511 C   0  0  0  0  0  0  0  0  0  0  0  0
   -5.5896   -0.0882  -22.6386 H   0  0  0  0  0  0  0  0  0  0  0  0
   -3.6508    1.3574  -22.9844 H   0  0  0  0  0  0  0  0  0  0  0  0
   -2.3757    2.2582  -21.0528 H   0  0  0  0  0  0  0  0  0  0  0  0
   -3.0747    1.6904  -18.7383 H   0  0  0  0  0  0  0  0  0  0  0  0
   -4.6362    0.6051  -17.2055 H   0  0  0  0  0  0  0  0  0  0  0  0
   -7.7696   -1.6836  -18.5431 H   0  0  0  0  0  0  0  0  0  0  0  0
   -6.8695   -1.9357  -21.9974 H   0  0  0  0  0  0  0  0  0  0  0  0
   -8.1508   -2.1796  -20.7980 H   0  0  0  0  0  0  0  0  0  0  0  0
   -8.2774   -0.0383  -23.1013 N   0  0  0  0  0  0  0  0  0  0  0  0
   -7.9173   -1.0556  -24.0711 C   0  0  0  0  0  0  0  0  0  0  0  0
   -8.6669   -0.8123  -25.3688 C   0  0  0  0  0  0  0  0  0  0  0  0
   -8.4230    0.5911  -25.9229 C   0  0  0  0  0  0  0  0  0  0  0  0
   -9.0442    0.7843  -27.3233 C   0  0  0  0  0  0  0  0  0  0  0  0
   -7.7047    1.2673  -27.9120 C   0  0  0  0  0  0  0  0  0  0  0  0
   -7.0297    0.8832  -26.5649 C   0  0  0  0  0  0  0  0  0  0  0  0
   -6.4057    1.6468  -26.0804 H   0  0  0  0  0  0  0  0  0  0  0  0
   -6.4401   -0.0340  -26.6536 H   0  0  0  0  0  0  0  0  0  0  0  0
   -7.3477    0.7683  -28.8249 H   0  0  0  0  0  0  0  0  0  0  0  0
   -7.7190    2.3403  -28.1246 H   0  0  0  0  0  0  0  0  0  0  0  0
   -9.3435   -0.1800  -27.7321 H   0  0  0  0  0  0  0  0  0  0  0  0
   -9.8788    1.4818  -27.3882 H   0  0  0  0  0  0  0  0  0  0  0  0
   -8.8829    1.5777  -24.8510 C   0  0  0  0  0  0  0  0  0  0  0  0
   -8.1732    1.3600  -23.5188 C   0  0  0  0  0  0  0  0  0  0  0  0
   -7.1097    1.6627  -23.5673 H   0  0  0  0  0  0  0  0  0  0  0  0
   -8.6450    1.9550  -22.7337 H   0  0  0  0  0  0  0  0  0  0  0  0
   -8.7616    2.6116  -25.1993 H   0  0  0  0  0  0  0  0  0  0  0  0
   -9.9528    1.4015  -24.6762 H   0  0  0  0  0  0  0  0  0  0  0  0
   -8.4122   -1.5832  -26.1065 H   0  0  0  0  0  0  0  0  0  0  0  0
   -9.7396   -0.9112  -25.1546 H   0  0  0  0  0  0  0  0  0  0  0  0
   -6.8291   -1.0681  -24.2429 H   0  0  0  0  0  0  0  0  0  0  0  0
   -8.2048   -2.0297  -23.6685 H   0  0  0  0  0  0  0  0  0  0  0  0
  1  2  2  0
  2  3  1  0
  3  4  1  0
  4  5  2  0
  5  6  1  0
  6  7  2  0
  7  8  1  0
  8  9  2  0
  9 10  1  0
 10 11  2  0
 11 12  1  0
 12 13  2  0
 12 14  1  0
 11 15  1  0
 10 16  1  0
  9 17  1  0
  7 18  1  0
  5 19  1  0
  3 20  1  0
  3 21  1  0
  2 22  1  0
 22 23  1  0
 23 24  1  0
 24 25  1  0
 25 26  1  0
 26 27  1  0
 27 28  1  0
 28 29  1  0
 28 30  1  0
 27 31  1  0
 27 32  1  0
 26 33  1  0
 26 34  1  0
 25 35  1  0
 35 36  1  0
 36 37  1  0
 36 38  1  0
 35 39  1  0
 35 40  1  0
 24 41  1  0
 24 42  1  0
 23 43  1  0
 23 44  1  0
 13  4  1  0
 36 22  1  0
 13  8  1  0
 28 25  1  0
M  END
>  <cnnaffinities>  (59) 
[4.87627, 4.86274, 4.86276, 4.86275, 4.86271, 4.84527, 4.84683, 4.8467, 4.84577]

>  <score>  (59) 
4.87627

>  <index>  (59) 
61

>  <Smiles>  (59) 
O=C(C(c1c(nc(c2c(c(c(c(c12)[H])[H])[H])[H])[H])[H])([H])[H])N1C(C(C2(C(C(C2([H])[H])([H])[H])([H])[H])C(C1([H])[H])([H])[H])([H])[H])([H])[H]

>  <h>  (59) 
<NA>

>  <Training>  (59) 
True

>  <Success>  (59) 
True

>  <enamine_searched>  (59) 
False

>  <enamine_id>  (59) 
nan

$$$$

     RDKit          3D

 44 47  0  0  0  0  0  0  0  0999 V2000
   -5.6893   -3.1638  -21.4101 O   0  0  0  0  0  0  0  0  0  0  0  0
   -6.7098   -2.7144  -21.9086 C   0  0  0  0  0  0  0  0  0  0  0  0
   -7.4005   -1.4737  -21.2797 C   0  0  0  0  0  0  0  0  0  0  0  0
   -6.5755   -0.8336  -20.1830 C   0  0  0  0  0  0  0  0  0  0  0  0
   -6.8744   -1.0471  -18.8644 C   0  0  0  0  0  0  0  0  0  0  0  0
   -6.1951   -0.5380  -17.7997 N   0  0  0  0  0  0  0  0  0  0  0  0
   -5.1588    0.2182  -18.0664 C   0  0  0  0  0  0  0  0  0  0  0  0
   -4.7207    0.5289  -19.3802 C   0  0  0  0  0  0  0  0  0  0  0  0
   -3.5928    1.3559  -19.6217 C   0  0  0  0  0  0  0  0  0  0  0  0
   -3.1935    1.6319  -20.9012 C   0  0  0  0  0  0  0  0  0  0  0  0
   -3.9036    1.0891  -21.9925 C   0  0  0  0  0  0  0  0  0  0  0  0
   -4.9990    0.2870  -21.7872 C   0  0  0  0  0  0  0  0  0  0  0  0
   -5.4433   -0.0133  -20.4729 C   0  0  0  0  0  0  0  0  0  0  0  0
   -5.5376   -0.1193  -22.6370 H   0  0  0  0  0  0  0  0  0  0  0  0
   -3.5835    1.3192  -23.0061 H   0  0  0  0  0  0  0  0  0  0  0  0
   -2.3331    2.2731  -21.0886 H   0  0  0  0  0  0  0  0  0  0  0  0
   -3.0542    1.7688  -18.7724 H   0  0  0  0  0  0  0  0  0  0  0  0
   -4.6039    0.6255  -17.2171 H   0  0  0  0  0  0  0  0  0  0  0  0
   -7.7233   -1.6735  -18.5872 H   0  0  0  0  0  0  0  0  0  0  0  0
   -8.3614   -1.7997  -20.8500 H   0  0  0  0  0  0  0  0  0  0  0  0
   -7.6555   -0.7259  -22.0447 H   0  0  0  0  0  0  0  0  0  0  0  0
   -7.2938   -3.2988  -23.0136 N   0  0  0  0  0  0  0  0  0  0  0  0
   -6.7583   -4.5604  -23.5240 C   0  0  0  0  0  0  0  0  0  0  0  0
   -7.8764   -5.5558  -23.8360 C   0  0  0  0  0  0  0  0  0  0  0  0
   -9.0381   -4.9489  -24.6612 C   0  0  0  0  0  0  0  0  0  0  0  0
   -9.3790   -5.8454  -25.8600 C   0  0  0  0  0  0  0  0  0  0  0  0
   -8.3774   -6.0648  -26.9628 C   0  0  0  0  0  0  0  0  0  0  0  0
   -9.6640   -5.3354  -27.2462 C   0  0  0  0  0  0  0  0  0  0  0  0
  -10.4109   -5.8436  -27.8567 H   0  0  0  0  0  0  0  0  0  0  0  0
   -9.6139   -4.2665  -27.4394 H   0  0  0  0  0  0  0  0  0  0  0  0
   -8.2460   -7.0647  -27.3814 H   0  0  0  0  0  0  0  0  0  0  0  0
   -7.4653   -5.4708  -26.9280 H   0  0  0  0  0  0  0  0  0  0  0  0
   -9.9372   -6.7419  -25.5862 H   0  0  0  0  0  0  0  0  0  0  0  0
   -8.7427   -3.4927  -25.0208 C   0  0  0  0  0  0  0  0  0  0  0  0
   -8.3577   -2.6700  -23.7948 C   0  0  0  0  0  0  0  0  0  0  0  0
   -8.0463   -1.6733  -24.1295 H   0  0  0  0  0  0  0  0  0  0  0  0
   -9.2424   -2.5276  -23.1615 H   0  0  0  0  0  0  0  0  0  0  0  0
   -9.6318   -3.0407  -25.4672 H   0  0  0  0  0  0  0  0  0  0  0  0
   -7.9618   -3.4196  -25.7868 H   0  0  0  0  0  0  0  0  0  0  0  0
   -9.9244   -4.9390  -24.0143 H   0  0  0  0  0  0  0  0  0  0  0  0
   -7.4439   -6.4132  -24.3628 H   0  0  0  0  0  0  0  0  0  0  0  0
   -8.2704   -5.9500  -22.8964 H   0  0  0  0  0  0  0  0  0  0  0  0
   -6.0859   -4.9691  -22.7709 H   0  0  0  0  0  0  0  0  0  0  0  0
   -6.1487   -4.3791  -24.4217 H   0  0  0  0  0  0  0  0  0  0  0  0
  1  2  2  0
  2  3  1  0
  3  4  1  0
  4  5  2  0
  5  6  1  0
  6  7  2  0
  7  8  1  0
  8  9  2  0
  9 10  1  0
 10 11  2  0
 11 12  1  0
 12 13  2  0
 12 14  1  0
 11 15  1  0
 10 16  1  0
  9 17  1  0
  7 18  1  0
  5 19  1  0
  3 20  1  0
  3 21  1  0
  2 22  1  0
 22 23  1  0
 23 24  1  0
 24 25  1  0
 25 26  1  0
 26 27  1  0
 27 28  1  0
 28 29  1  0
 28 30  1  0
 27 31  1  0
 27 32  1  0
 26 33  1  0
 25 34  1  0
 34 35  1  0
 35 36  1  0
 35 37  1  0
 34 38  1  0
 34 39  1  0
 25 40  1  0
 24 41  1  0
 24 42  1  0
 23 43  1  0
 23 44  1  0
 13  4  1  0
 35 22  1  0
 13  8  1  0
 28 26  1  0
M  END
>  <cnnaffinities>  (60) 
[5.02044]

>  <score>  (60) 
5.02044

>  <index>  (60) 
62

>  <Smiles>  (60) 
O=C(C(c1c(nc(c2c(c(c(c(c12)[H])[H])[H])[H])[H])[H])([H])[H])N1C(C(C(C2(C(C2([H])[H])([H])[H])[H])(C(C1([H])[H])([H])[H])[H])([H])[H])([H])[H]

>  <h>  (60) 
<NA>

>  <Training>  (60) 
True

>  <Success>  (60) 
True

>  <enamine_searched>  (60) 
False

>  <enamine_id>  (60) 
nan

$$$$

     RDKit          3D

 57 61  0  0  0  0  0  0  0  0999 V2000
   -6.7874    3.5585  -23.2901 C   0  0  0  0  0  0  0  0  0  0  0  0
   -7.7208    2.9970  -24.2480 N   0  0  0  0  0  0  0  0  0  0  0  0
   -7.3516    1.8544  -24.8792 C   0  0  0  0  0  0  0  0  0  0  0  0
   -6.2255    1.3843  -24.7940 O   0  0  0  0  0  0  0  0  0  0  0  0
   -8.4545    1.1719  -25.6876 C   0  0  0  0  0  0  0  0  0  0  0  0
   -9.2394    0.3039  -24.8329 N   0  0  0  0  0  0  0  0  0  0  0  0
   -8.7289   -1.0203  -24.5161 C   0  0  0  0  0  0  0  0  0  0  0  0
   -8.9781   -1.4050  -23.0352 C   0  0  2  0  0  0  0  0  0  0  0  0
   -8.1466   -0.5062  -22.0927 C   0  0  0  0  0  0  0  0  0  0  0  0
   -8.1023    0.7065  -22.0977 O   0  0  0  0  0  0  0  0  0  0  0  0
   -7.4341   -1.3078  -21.2294 N   0  0  0  0  0  0  0  0  0  0  0  0
   -6.6198   -0.7924  -20.1996 C   0  0  0  0  0  0  0  0  0  0  0  0
   -6.9085   -1.0651  -18.8851 C   0  0  0  0  0  0  0  0  0  0  0  0
   -6.2219   -0.5704  -17.8263 N   0  0  0  0  0  0  0  0  0  0  0  0
   -5.1874    0.1911  -18.0923 C   0  0  0  0  0  0  0  0  0  0  0  0
   -4.7461    0.5087  -19.4090 C   0  0  0  0  0  0  0  0  0  0  0  0
   -3.6111    1.3336  -19.6360 C   0  0  0  0  0  0  0  0  0  0  0  0
   -3.2000    1.6179  -20.9095 C   0  0  0  0  0  0  0  0  0  0  0  0
   -3.8996    1.0858  -22.0165 C   0  0  0  0  0  0  0  0  0  0  0  0
   -4.9977    0.2844  -21.8266 C   0  0  0  0  0  0  0  0  0  0  0  0
   -5.4659   -0.0063  -20.5100 C   0  0  0  0  0  0  0  0  0  0  0  0
   -5.5257   -0.1000  -22.6936 H   0  0  0  0  0  0  0  0  0  0  0  0
   -3.5942    1.3392  -23.0293 H   0  0  0  0  0  0  0  0  0  0  0  0
   -2.3405    2.2606  -21.0795 H   0  0  0  0  0  0  0  0  0  0  0  0
   -3.0878    1.7368  -18.7735 H   0  0  0  0  0  0  0  0  0  0  0  0
   -4.6356    0.5994  -17.2446 H   0  0  0  0  0  0  0  0  0  0  0  0
   -7.7646   -1.6922  -18.6398 H   0  0  0  0  0  0  0  0  0  0  0  0
   -7.7907   -2.7071  -21.3095 C   0  0  0  0  0  0  0  0  0  0  0  0
   -8.4977   -2.8400  -22.6711 C   0  0  2  0  0  0  0  0  0  0  0  0
   -7.6280   -3.5617  -23.6952 C   0  0  0  0  0  0  0  0  0  0  0  0
   -6.3760   -2.9104  -23.8120 O   0  0  0  0  0  0  0  0  0  0  0  0
   -5.8864   -3.3509  -24.5161 H   0  0  0  0  0  0  0  0  0  0  0  0
   -7.4938   -4.6061  -23.3703 H   0  0  0  0  0  0  0  0  0  0  0  0
   -8.1561   -3.5926  -24.6580 H   0  0  0  0  0  0  0  0  0  0  0  0
   -9.3713   -3.4857  -22.5794 H   0  0  0  0  0  0  0  0  0  0  0  0
   -6.8902   -3.3219  -21.2312 H   0  0  0  0  0  0  0  0  0  0  0  0
   -8.4662   -2.9808  -20.4897 H   0  0  0  0  0  0  0  0  0  0  0  0
  -10.4694   -1.1964  -22.7884 C   0  0  0  0  0  0  0  0  0  0  0  0
  -11.2219   -2.0577  -21.9799 C   0  0  0  0  0  0  0  0  0  0  0  0
  -12.5831   -1.8646  -21.8311 C   0  0  0  0  0  0  0  0  0  0  0  0
  -13.4798   -3.0537  -20.9246 Cl  0  0  0  0  0  0  0  0  0  0  0  0
  -13.2319   -0.7527  -22.3732 C   0  0  0  0  0  0  0  0  0  0  0  0
  -12.4745    0.1322  -23.1216 C   0  0  0  0  0  0  0  0  0  0  0  0
  -11.1289   -0.1138  -23.3825 C   0  0  0  0  0  0  0  0  0  0  0  0
  -10.4193    0.7840  -24.3499 C   0  0  0  0  0  0  0  0  0  0  0  0
  -10.8661    1.8755  -24.6960 O   0  0  0  0  0  0  0  0  0  0  0  0
  -12.8967    1.0233  -23.5716 H   0  0  0  0  0  0  0  0  0  0  0  0
  -14.2904   -0.5771  -22.1929 H   0  0  0  0  0  0  0  0  0  0  0  0
  -10.7641   -2.8722  -21.4283 H   0  0  0  0  0  0  0  0  0  0  0  0
   -7.6647   -1.0426  -24.7510 H   0  0  0  0  0  0  0  0  0  0  0  0
   -9.2284   -1.7656  -25.1486 H   0  0  0  0  0  0  0  0  0  0  0  0
   -9.1425    1.9053  -26.1161 H   0  0  0  0  0  0  0  0  0  0  0  0
   -7.9840    0.5713  -26.4705 H   0  0  0  0  0  0  0  0  0  0  0  0
   -8.7085    3.1413  -24.0828 H   0  0  0  0  0  0  0  0  0  0  0  0
   -6.4265    2.7558  -22.6351 H   0  0  0  0  0  0  0  0  0  0  0  0
   -7.2754    4.3394  -22.7011 H   0  0  0  0  0  0  0  0  0  0  0  0
   -5.9278    3.9905  -23.8118 H   0  0  0  0  0  0  0  0  0  0  0  0
  1  2  1  0
  2  3  1  0
  3  4  2  0
  3  5  1  0
  5  6  1  0
  6  7  1  0
  8  7  1  6
  8  9  1  0
  9 10  2  0
  9 11  1  0
 11 12  1  0
 12 13  2  0
 13 14  1  0
 14 15  2  0
 15 16  1  0
 16 17  2  0
 17 18  1  0
 18 19  2  0
 19 20  1  0
 20 21  2  0
 20 22  1  0
 19 23  1  0
 18 24  1  0
 17 25  1  0
 15 26  1  0
 13 27  1  0
 11 28  1  0
 28 29  1  0
 29 30  1  0
 30 31  1  0
 31 32  1  0
 30 33  1  0
 30 34  1  0
 29 35  1  1
 28 36  1  0
 28 37  1  0
  8 38  1  0
 38 39  2  0
 39 40  1  0
 40 41  1  0
 40 42  2  0
 42 43  1  0
 43 44  2  0
 44 45  1  0
 45 46  2  0
 43 47  1  0
 42 48  1  0
 39 49  1  0
  7 50  1  0
  7 51  1  0
  5 52  1  0
  5 53  1  0
  2 54  1  0
  1 55  1  0
  1 56  1  0
  1 57  1  0
 45  6  1  0
 29  8  1  0
 44 38  1  0
 21 12  1  0
 21 16  1  0
M  END
>  <cnnaffinities>  (61) 
[6.04199]

>  <score>  (61) 
6.04199

>  <index>  (61) 
63

>  <Smiles>  (61) 
C(N(C(=O)C(N1C([C@@]2(C(=O)N(c3c(nc(c4c(c(c(c(c34)[H])[H])[H])[H])[H])[H])C([C@@]2(C(O[H])([H])[H])[H])([H])[H])c2c(c(Cl)c(c(c2C1=O)[H])[H])[H])([H])[H])([H])[H])[H])([H])([H])[H]

>  <h>  (61) 
<NA>

>  <Training>  (61) 
True

>  <Success>  (61) 
True

>  <enamine_searched>  (61) 
False

>  <enamine_id>  (61) 
nan

$$$$

     RDKit          3D

 55 60  0  0  0  0  0  0  0  0999 V2000
  -10.4400   -1.0117  -23.3335 C   0  0  0  0  0  0  0  0  0  0  0  0
   -9.0080   -1.3782  -22.9645 C   0  0  1  0  0  0  0  0  0  0  0  0
   -8.4046   -0.4541  -21.8935 C   0  0  0  0  0  0  0  0  0  0  0  0
   -7.4269   -1.2991  -21.2346 N   0  0  0  0  0  0  0  0  0  0  0  0
   -6.6024   -0.8353  -20.1862 C   0  0  0  0  0  0  0  0  0  0  0  0
   -6.9153   -1.1006  -18.8770 C   0  0  0  0  0  0  0  0  0  0  0  0
   -6.2433   -0.5838  -17.8179 N   0  0  0  0  0  0  0  0  0  0  0  0
   -5.2141    0.1898  -18.0747 C   0  0  0  0  0  0  0  0  0  0  0  0
   -4.7593    0.5092  -19.3890 C   0  0  0  0  0  0  0  0  0  0  0  0
   -3.6218    1.3266  -19.6226 C   0  0  0  0  0  0  0  0  0  0  0  0
   -3.2241    1.6020  -20.9056 C   0  0  0  0  0  0  0  0  0  0  0  0
   -3.9317    1.0701  -22.0066 C   0  0  0  0  0  0  0  0  0  0  0  0
   -5.0314    0.2725  -21.8069 C   0  0  0  0  0  0  0  0  0  0  0  0
   -5.4715   -0.0159  -20.4850 C   0  0  0  0  0  0  0  0  0  0  0  0
   -5.5734   -0.1474  -22.6482 H   0  0  0  0  0  0  0  0  0  0  0  0
   -3.6077    1.2991  -23.0192 H   0  0  0  0  0  0  0  0  0  0  0  0
   -2.3593    2.2342  -21.0868 H   0  0  0  0  0  0  0  0  0  0  0  0
   -3.0804    1.7217  -18.7693 H   0  0  0  0  0  0  0  0  0  0  0  0
   -4.6809    0.6097  -17.2213 H   0  0  0  0  0  0  0  0  0  0  0  0
   -7.7553   -1.7498  -18.6357 H   0  0  0  0  0  0  0  0  0  0  0  0
   -7.6063   -2.6426  -21.4680 C   0  0  0  0  0  0  0  0  0  0  0  0
   -6.8746   -3.5070  -21.0306 O   0  0  0  0  0  0  0  0  0  0  0  0
   -8.8263   -2.8242  -22.3842 C   0  0  1  0  0  0  0  0  0  0  0  0
  -10.0352   -3.2436  -21.5147 C   0  0  0  0  0  0  0  0  0  0  0  0
  -11.1862   -3.6859  -22.3053 N   0  0  0  0  0  0  0  0  0  0  0  0
  -12.5461   -3.6358  -21.7678 C   0  0  0  0  0  0  0  0  0  0  0  0
  -13.4517   -2.5697  -22.3308 C   0  0  0  0  0  0  0  0  0  0  0  0
  -13.5114   -1.2659  -21.9104 N   0  0  0  0  0  0  0  0  0  0  0  0
  -14.4867   -0.7597  -22.6486 C   0  0  0  0  0  0  0  0  0  0  0  0
  -14.9690   -1.7035  -23.4685 N   0  0  0  0  0  0  0  0  0  0  0  0
  -14.3420   -2.8759  -23.2510 N   0  0  0  0  0  0  0  0  0  0  0  0
  -15.7598   -1.6720  -24.0931 H   0  0  0  0  0  0  0  0  0  0  0  0
  -14.8821    0.2505  -22.6238 H   0  0  0  0  0  0  0  0  0  0  0  0
  -13.0241   -4.5731  -22.0578 H   0  0  0  0  0  0  0  0  0  0  0  0
  -12.5193   -3.5615  -20.6784 H   0  0  0  0  0  0  0  0  0  0  0  0
  -11.0133   -4.4864  -23.4103 C   0  0  0  0  0  0  0  0  0  0  0  0
  -11.9437   -5.0166  -23.9976 O   0  0  0  0  0  0  0  0  0  0  0  0
   -9.6158   -4.6813  -23.8891 C   0  0  0  0  0  0  0  0  0  0  0  0
   -9.3993   -5.6620  -24.8562 C   0  0  0  0  0  0  0  0  0  0  0  0
   -8.1303   -5.8730  -25.3624 C   0  0  0  0  0  0  0  0  0  0  0  0
   -7.0950   -5.0654  -24.9070 C   0  0  0  0  0  0  0  0  0  0  0  0
   -5.8608   -5.2371  -25.4097 F   0  0  0  0  0  0  0  0  0  0  0  0
   -7.2895   -4.0828  -23.9576 C   0  0  0  0  0  0  0  0  0  0  0  0
   -8.5687   -3.8912  -23.4208 C   0  0  0  0  0  0  0  0  0  0  0  0
   -6.4424   -3.5087  -23.6044 H   0  0  0  0  0  0  0  0  0  0  0  0
   -7.9259   -6.6520  -26.0868 H   0  0  0  0  0  0  0  0  0  0  0  0
  -10.2509   -6.2430  -25.1986 H   0  0  0  0  0  0  0  0  0  0  0  0
  -10.3093   -2.3892  -20.8843 H   0  0  0  0  0  0  0  0  0  0  0  0
   -9.6985   -4.0429  -20.8517 H   0  0  0  0  0  0  0  0  0  0  0  0
   -9.1700   -0.1063  -21.1824 H   0  0  0  0  0  0  0  0  0  0  0  0
   -7.9369    0.4427  -22.3123 H   0  0  0  0  0  0  0  0  0  0  0  0
   -8.3710   -1.3296  -23.8580 H   0  0  0  0  0  0  0  0  0  0  0  0
  -10.5053   -0.0501  -23.8477 H   0  0  0  0  0  0  0  0  0  0  0  0
  -11.0658   -0.9425  -22.4385 H   0  0  0  0  0  0  0  0  0  0  0  0
  -10.8752   -1.7818  -23.9768 H   0  0  0  0  0  0  0  0  0  0  0  0
  1  2  1  0
  2  3  1  0
  3  4  1  0
  4  5  1  0
  5  6  2  0
  6  7  1  0
  7  8  2  0
  8  9  1  0
  9 10  2  0
 10 11  1  0
 11 12  2  0
 12 13  1  0
 13 14  2  0
 13 15  1  0
 12 16  1  0
 11 17  1  0
 10 18  1  0
  8 19  1  0
  6 20  1  0
  4 21  1  0
 21 22  2  0
 21 23  1  0
 23 24  1  1
 24 25  1  0
 25 26  1  0
 26 27  1  0
 27 28  1  0
 28 29  2  0
 29 30  1  0
 30 31  1  0
 30 32  1  0
 29 33  1  0
 26 34  1  0
 26 35  1  0
 25 36  1  0
 36 37  2  0
 36 38  1  0
 38 39  2  0
 39 40  1  0
 40 41  2  0
 41 42  1  0
 41 43  1  0
 43 44  2  0
 43 45  1  0
 40 46  1  0
 39 47  1  0
 24 48  1  0
 24 49  1  0
  3 50  1  0
  3 51  1  0
  2 52  1  6
  1 53  1  0
  1 54  1  0
  1 55  1  0
 23  2  1  0
 31 27  2  0
 44 38  1  0
 14  5  1  0
 44 23  1  0
 14  9  1  0
M  END
>  <cnnaffinities>  (62) 
[6.5322]

>  <score>  (62) 
6.5322

>  <index>  (62) 
64

>  <Smiles>  (62) 
C([C@]1(C(N(c2c(nc(c3c(c(c(c(c23)[H])[H])[H])[H])[H])[H])C(=O)[C@]21C(N(C(c1nc(n(n1)[H])[H])([H])[H])C(=O)c1c(c(c(F)c(c21)[H])[H])[H])([H])[H])([H])[H])[H])([H])([H])[H]

>  <h>  (62) 
<NA>

>  <Training>  (62) 
True

>  <Success>  (62) 
True

>  <enamine_searched>  (62) 
False

>  <enamine_id>  (62) 
nan

$$$$

     RDKit          3D

 55 60  0  0  0  0  0  0  0  0999 V2000
  -10.4666   -1.0990  -23.2921 C   0  0  0  0  0  0  0  0  0  0  0  0
   -9.0241   -1.4491  -22.9390 C   0  0  1  0  0  0  0  0  0  0  0  0
   -8.4045   -0.5029  -21.8981 C   0  0  0  0  0  0  0  0  0  0  0  0
   -7.4151   -1.3342  -21.2307 N   0  0  0  0  0  0  0  0  0  0  0  0
   -6.5933   -0.8481  -20.1857 C   0  0  0  0  0  0  0  0  0  0  0  0
   -6.9074   -1.0945  -18.8729 C   0  0  0  0  0  0  0  0  0  0  0  0
   -6.2351   -0.5688  -17.8173 N   0  0  0  0  0  0  0  0  0  0  0  0
   -5.2059    0.1987  -18.0816 C   0  0  0  0  0  0  0  0  0  0  0  0
   -4.7524    0.5100  -19.3954 C   0  0  0  0  0  0  0  0  0  0  0  0
   -3.6173    1.3299  -19.6294 C   0  0  0  0  0  0  0  0  0  0  0  0
   -3.2198    1.6042  -20.9092 C   0  0  0  0  0  0  0  0  0  0  0  0
   -3.9287    1.0702  -22.0096 C   0  0  0  0  0  0  0  0  0  0  0  0
   -5.0273    0.2704  -21.8086 C   0  0  0  0  0  0  0  0  0  0  0  0
   -5.4671   -0.0223  -20.4901 C   0  0  0  0  0  0  0  0  0  0  0  0
   -5.5666   -0.1479  -22.6523 H   0  0  0  0  0  0  0  0  0  0  0  0
   -3.6038    1.2989  -23.0208 H   0  0  0  0  0  0  0  0  0  0  0  0
   -2.3587    2.2415  -21.0918 H   0  0  0  0  0  0  0  0  0  0  0  0
   -3.0795    1.7311  -18.7744 H   0  0  0  0  0  0  0  0  0  0  0  0
   -4.6659    0.6126  -17.2298 H   0  0  0  0  0  0  0  0  0  0  0  0
   -7.7531   -1.7311  -18.6230 H   0  0  0  0  0  0  0  0  0  0  0  0
   -7.6014   -2.6857  -21.4311 C   0  0  0  0  0  0  0  0  0  0  0  0
   -6.8767   -3.5492  -20.9811 O   0  0  0  0  0  0  0  0  0  0  0  0
   -8.8249   -2.8865  -22.3400 C   0  0  1  0  0  0  0  0  0  0  0  0
  -10.0303   -3.3305  -21.4764 C   0  0  0  0  0  0  0  0  0  0  0  0
  -11.1868   -3.7512  -22.2706 N   0  0  0  0  0  0  0  0  0  0  0  0
  -12.5344   -3.7215  -21.6846 C   0  0  0  0  0  0  0  0  0  0  0  0
  -13.4457   -2.6298  -22.1744 C   0  0  0  0  0  0  0  0  0  0  0  0
  -13.8774   -1.4251  -21.7211 C   0  0  0  0  0  0  0  0  0  0  0  0
  -14.7800   -0.9229  -22.6241 O   0  0  0  0  0  0  0  0  0  0  0  0
  -14.8423   -1.8612  -23.5797 C   0  0  0  0  0  0  0  0  0  0  0  0
  -14.1159   -2.8897  -23.3578 N   0  0  0  0  0  0  0  0  0  0  0  0
  -15.4500   -1.6983  -24.4552 H   0  0  0  0  0  0  0  0  0  0  0  0
  -13.7042   -0.7880  -20.8709 H   0  0  0  0  0  0  0  0  0  0  0  0
  -13.0408   -4.6161  -22.0494 H   0  0  0  0  0  0  0  0  0  0  0  0
  -12.4723   -3.7718  -20.5922 H   0  0  0  0  0  0  0  0  0  0  0  0
  -11.0069   -4.5506  -23.3778 C   0  0  0  0  0  0  0  0  0  0  0  0
  -11.9367   -5.0772  -23.9707 O   0  0  0  0  0  0  0  0  0  0  0  0
   -9.5960   -4.7410  -23.8525 C   0  0  0  0  0  0  0  0  0  0  0  0
   -9.3482   -5.6986  -24.8361 C   0  0  0  0  0  0  0  0  0  0  0  0
   -8.0762   -5.8607  -25.3573 C   0  0  0  0  0  0  0  0  0  0  0  0
   -7.0597   -5.0228  -24.9144 C   0  0  0  0  0  0  0  0  0  0  0  0
   -5.8289   -5.1541  -25.4382 F   0  0  0  0  0  0  0  0  0  0  0  0
   -7.2759   -4.0738  -23.9385 C   0  0  0  0  0  0  0  0  0  0  0  0
   -8.5554   -3.9381  -23.3838 C   0  0  0  0  0  0  0  0  0  0  0  0
   -6.4368   -3.4836  -23.5900 H   0  0  0  0  0  0  0  0  0  0  0  0
   -7.8579   -6.6219  -26.0953 H   0  0  0  0  0  0  0  0  0  0  0  0
  -10.1781   -6.3094  -25.1784 H   0  0  0  0  0  0  0  0  0  0  0  0
  -10.3009   -2.4639  -20.8628 H   0  0  0  0  0  0  0  0  0  0  0  0
   -9.7127   -4.1569  -20.8281 H   0  0  0  0  0  0  0  0  0  0  0  0
   -9.1600   -0.1308  -21.1871 H   0  0  0  0  0  0  0  0  0  0  0  0
   -7.9372    0.3733  -22.3589 H   0  0  0  0  0  0  0  0  0  0  0  0
   -8.4048   -1.4198  -23.8471 H   0  0  0  0  0  0  0  0  0  0  0  0
  -11.0735   -1.0676  -22.3810 H   0  0  0  0  0  0  0  0  0  0  0  0
  -10.8947   -1.8660  -23.9446 H   0  0  0  0  0  0  0  0  0  0  0  0
  -10.5483   -0.1291  -23.7882 H   0  0  0  0  0  0  0  0  0  0  0  0
  1  2  1  0
  2  3  1  0
  3  4  1  0
  4  5  1  0
  5  6  2  0
  6  7  1  0
  7  8  2  0
  8  9  1  0
  9 10  2  0
 10 11  1  0
 11 12  2  0
 12 13  1  0
 13 14  2  0
 13 15  1  0
 12 16  1  0
 11 17  1  0
 10 18  1  0
  8 19  1  0
  6 20  1  0
  4 21  1  0
 21 22  2  0
 21 23  1  0
 23 24  1  1
 24 25  1  0
 25 26  1  0
 26 27  1  0
 27 28  2  0
 28 29  1  0
 29 30  1  0
 30 31  2  0
 30 32  1  0
 28 33  1  0
 26 34  1  0
 26 35  1  0
 25 36  1  0
 36 37  2  0
 36 38  1  0
 38 39  2  0
 39 40  1  0
 40 41  2  0
 41 42  1  0
 41 43  1  0
 43 44  2  0
 43 45  1  0
 40 46  1  0
 39 47  1  0
 24 48  1  0
 24 49  1  0
  3 50  1  0
  3 51  1  0
  2 52  1  6
  1 53  1  0
  1 54  1  0
  1 55  1  0
 23  2  1  0
 31 27  1  0
 44 38  1  0
 14  5  1  0
 44 23  1  0
 14  9  1  0
M  END
>  <cnnaffinities>  (63) 
[6.4009]

>  <score>  (63) 
6.4009

>  <index>  (63) 
65

>  <Smiles>  (63) 
C([C@]1(C(N(c2c(nc(c3c(c(c(c(c23)[H])[H])[H])[H])[H])[H])C(=O)[C@]21C(N(C(c1c(oc(n1)[H])[H])([H])[H])C(=O)c1c(c(c(F)c(c21)[H])[H])[H])([H])[H])([H])[H])[H])([H])([H])[H]

>  <h>  (63) 
<NA>

>  <Training>  (63) 
True

>  <Success>  (63) 
True

>  <enamine_searched>  (63) 
False

>  <enamine_id>  (63) 
nan

$$$$

     RDKit          3D

 44 47  0  0  0  0  0  0  0  0999 V2000
   -7.8532   -0.5969  -24.9402 C   0  0  0  0  0  0  0  0  0  0  0  0
   -8.3647   -2.0241  -25.0935 C   0  0  0  0  0  0  0  0  0  0  0  0
   -8.3271   -2.8447  -23.7884 C   0  0  1  0  0  0  0  0  0  0  0  0
   -8.8862   -4.2160  -24.0599 C   0  0  0  0  0  0  0  0  0  0  0  0
  -10.2472   -4.4864  -24.3883 C   0  0  0  0  0  0  0  0  0  0  0  0
  -10.4510   -5.7566  -24.8258 C   0  0  0  0  0  0  0  0  0  0  0  0
   -8.9764   -6.6655  -24.7960 S   0  0  0  0  0  0  0  0  0  0  0  0
   -8.0862   -5.3152  -24.1765 C   0  0  0  0  0  0  0  0  0  0  0  0
   -6.6103   -5.3359  -23.8911 C   0  0  0  0  0  0  0  0  0  0  0  0
   -6.1013   -3.8940  -23.9430 C   0  0  0  0  0  0  0  0  0  0  0  0
   -6.9828   -2.9788  -23.2291 N   0  0  0  0  0  0  0  0  0  0  0  0
   -6.6414   -2.6672  -21.9308 C   0  0  0  0  0  0  0  0  0  0  0  0
   -5.7593   -3.2718  -21.3419 O   0  0  0  0  0  0  0  0  0  0  0  0
   -7.3843   -1.4958  -21.2759 C   0  0  0  0  0  0  0  0  0  0  0  0
   -6.5777   -0.8409  -20.1858 C   0  0  0  0  0  0  0  0  0  0  0  0
   -6.8833   -1.0547  -18.8663 C   0  0  0  0  0  0  0  0  0  0  0  0
   -6.2084   -0.5414  -17.8049 N   0  0  0  0  0  0  0  0  0  0  0  0
   -5.1684    0.2103  -18.0711 C   0  0  0  0  0  0  0  0  0  0  0  0
   -4.7225    0.5186  -19.3874 C   0  0  0  0  0  0  0  0  0  0  0  0
   -3.5955    1.3444  -19.6208 C   0  0  0  0  0  0  0  0  0  0  0  0
   -3.1954    1.6246  -20.8988 C   0  0  0  0  0  0  0  0  0  0  0  0
   -3.9056    1.0896  -21.9971 C   0  0  0  0  0  0  0  0  0  0  0  0
   -5.0023    0.2880  -21.7937 C   0  0  0  0  0  0  0  0  0  0  0  0
   -5.4440   -0.0215  -20.4792 C   0  0  0  0  0  0  0  0  0  0  0  0
   -5.5461   -0.1013  -22.6504 H   0  0  0  0  0  0  0  0  0  0  0  0
   -3.5914    1.3292  -23.0087 H   0  0  0  0  0  0  0  0  0  0  0  0
   -2.3431    2.2725  -21.0788 H   0  0  0  0  0  0  0  0  0  0  0  0
   -3.0693    1.7531  -18.7602 H   0  0  0  0  0  0  0  0  0  0  0  0
   -4.6217    0.6180  -17.2201 H   0  0  0  0  0  0  0  0  0  0  0  0
   -7.7337   -1.6810  -18.5973 H   0  0  0  0  0  0  0  0  0  0  0  0
   -7.6603   -0.7769  -22.0571 H   0  0  0  0  0  0  0  0  0  0  0  0
   -8.3291   -1.8703  -20.8560 H   0  0  0  0  0  0  0  0  0  0  0  0
   -6.0495   -3.5520  -24.9878 H   0  0  0  0  0  0  0  0  0  0  0  0
   -5.1260   -3.8227  -23.4607 H   0  0  0  0  0  0  0  0  0  0  0  0
   -6.3935   -5.7779  -22.9031 H   0  0  0  0  0  0  0  0  0  0  0  0
   -6.0877   -5.9406  -24.6454 H   0  0  0  0  0  0  0  0  0  0  0  0
  -11.3862   -6.2205  -25.1184 H   0  0  0  0  0  0  0  0  0  0  0  0
  -11.0426   -3.7718  -24.2312 H   0  0  0  0  0  0  0  0  0  0  0  0
   -8.9531   -2.3360  -23.0370 H   0  0  0  0  0  0  0  0  0  0  0  0
   -7.8113   -2.5733  -25.8739 H   0  0  0  0  0  0  0  0  0  0  0  0
   -9.4133   -2.0412  -25.4196 H   0  0  0  0  0  0  0  0  0  0  0  0
   -7.9165   -0.0451  -25.8833 H   0  0  0  0  0  0  0  0  0  0  0  0
   -6.8051   -0.5800  -24.6152 H   0  0  0  0  0  0  0  0  0  0  0  0
   -8.4440   -0.0410  -24.2002 H   0  0  0  0  0  0  0  0  0  0  0  0
  1  2  1  0
  2  3  1  0
  3  4  1  0
  4  5  1  0
  5  6  2  0
  6  7  1  0
  7  8  1  0
  8  9  1  0
  9 10  1  0
 10 11  1  0
 11 12  1  0
 12 13  2  0
 12 14  1  0
 14 15  1  0
 15 16  2  0
 16 17  1  0
 17 18  2  0
 18 19  1  0
 19 20  2  0
 20 21  1  0
 21 22  2  0
 22 23  1  0
 23 24  2  0
 23 25  1  0
 22 26  1  0
 21 27  1  0
 20 28  1  0
 18 29  1  0
 16 30  1  0
 14 31  1  0
 14 32  1  0
 10 33  1  0
 10 34  1  0
  9 35  1  0
  9 36  1  0
  6 37  1  0
  5 38  1  0
  3 39  1  1
  2 40  1  0
  2 41  1  0
  1 42  1  0
  1 43  1  0
  1 44  1  0
 11  3  1  0
 24 15  1  0
  8  4  2  0
 24 19  1  0
M  END
>  <cnnaffinities>  (64) 
[5.39308, 5.7503, 5.08564, 5.03393]

>  <score>  (64) 
5.39308

>  <index>  (64) 
66

>  <Smiles>  (64) 
C(C([C@]1(c2c(c(sc2C(C(N1C(=O)C(c1c(nc(c2c(c(c(c(c12)[H])[H])[H])[H])[H])[H])([H])[H])([H])[H])([H])[H])[H])[H])[H])([H])[H])([H])([H])[H]

>  <h>  (64) 
<NA>

>  <Training>  (64) 
True

>  <Success>  (64) 
True

>  <enamine_searched>  (64) 
False

>  <enamine_id>  (64) 
nan

$$$$

     RDKit          3D

 58 63  0  0  0  0  0  0  0  0999 V2000
   -6.4905   -0.2684  -30.5832 C   0  0  0  0  0  0  0  0  0  0  0  0
   -6.3847   -0.2749  -29.0902 C   0  0  0  0  0  0  0  0  0  0  0  0
   -7.0820    0.5881  -28.1984 C   0  0  0  0  0  0  0  0  0  0  0  0
   -6.6655    0.1920  -26.9736 C   0  0  0  0  0  0  0  0  0  0  0  0
   -7.0562    0.6629  -25.6070 C   0  0  0  0  0  0  0  0  0  0  0  0
   -8.1813   -0.0442  -25.0306 N   0  0  0  0  0  0  0  0  0  0  0  0
   -7.9773   -1.3607  -24.4768 C   0  0  0  0  0  0  0  0  0  0  0  0
   -8.7609   -1.5225  -23.1541 C   0  0  2  0  0  0  0  0  0  0  0  0
   -8.1308   -0.5899  -22.0854 C   0  0  0  0  0  0  0  0  0  0  0  0
   -8.2161    0.6135  -22.0211 O   0  0  0  0  0  0  0  0  0  0  0  0
   -7.4140   -1.3661  -21.2024 N   0  0  0  0  0  0  0  0  0  0  0  0
   -6.6075   -0.8028  -20.1816 C   0  0  0  0  0  0  0  0  0  0  0  0
   -6.8987   -1.0515  -18.8644 C   0  0  0  0  0  0  0  0  0  0  0  0
   -6.2041   -0.5508  -17.8131 N   0  0  0  0  0  0  0  0  0  0  0  0
   -5.1695    0.2085  -18.0818 C   0  0  0  0  0  0  0  0  0  0  0  0
   -4.7301    0.5237  -19.3974 C   0  0  0  0  0  0  0  0  0  0  0  0
   -3.5952    1.3470  -19.6341 C   0  0  0  0  0  0  0  0  0  0  0  0
   -3.1843    1.6164  -20.9103 C   0  0  0  0  0  0  0  0  0  0  0  0
   -3.8807    1.0614  -22.0087 C   0  0  0  0  0  0  0  0  0  0  0  0
   -4.9782    0.2647  -21.8041 C   0  0  0  0  0  0  0  0  0  0  0  0
   -5.4541   -0.0066  -20.4894 C   0  0  0  0  0  0  0  0  0  0  0  0
   -5.5160   -0.1445  -22.6548 H   0  0  0  0  0  0  0  0  0  0  0  0
   -3.5548    1.2892  -23.0190 H   0  0  0  0  0  0  0  0  0  0  0  0
   -2.3299    2.2631  -21.0911 H   0  0  0  0  0  0  0  0  0  0  0  0
   -3.0691    1.7611  -18.7782 H   0  0  0  0  0  0  0  0  0  0  0  0
   -4.6234    0.6127  -17.2298 H   0  0  0  0  0  0  0  0  0  0  0  0
   -7.7467   -1.6821  -18.6016 H   0  0  0  0  0  0  0  0  0  0  0  0
   -7.4316   -2.7795  -21.5148 C   0  0  0  0  0  0  0  0  0  0  0  0
   -8.5738   -2.9375  -22.5374 C   0  0  2  0  0  0  0  0  0  0  0  0
   -8.3362   -4.0969  -23.5157 C   0  0  0  0  0  0  0  0  0  0  0  0
   -8.2986   -5.0561  -22.9840 H   0  0  0  0  0  0  0  0  0  0  0  0
   -7.3826   -3.9767  -24.0473 H   0  0  0  0  0  0  0  0  0  0  0  0
   -9.1265   -4.1678  -24.2743 H   0  0  0  0  0  0  0  0  0  0  0  0
   -9.4968   -3.1447  -21.9903 H   0  0  0  0  0  0  0  0  0  0  0  0
   -7.6075   -3.3396  -20.5999 H   0  0  0  0  0  0  0  0  0  0  0  0
   -6.4697   -3.1166  -21.9326 H   0  0  0  0  0  0  0  0  0  0  0  0
  -10.2010   -1.1072  -23.3913 C   0  0  0  0  0  0  0  0  0  0  0  0
  -11.2095   -1.4445  -22.4748 C   0  0  0  0  0  0  0  0  0  0  0  0
  -12.5044   -1.0252  -22.7078 C   0  0  0  0  0  0  0  0  0  0  0  0
  -13.4650   -1.3659  -21.8315 F   0  0  0  0  0  0  0  0  0  0  0  0
  -12.8390   -0.2066  -23.7812 C   0  0  0  0  0  0  0  0  0  0  0  0
  -11.8112    0.2743  -24.5656 C   0  0  0  0  0  0  0  0  0  0  0  0
  -10.5134   -0.2045  -24.4144 C   0  0  0  0  0  0  0  0  0  0  0  0
   -9.4531    0.3829  -25.2963 C   0  0  0  0  0  0  0  0  0  0  0  0
   -9.7039    1.2068  -26.1618 O   0  0  0  0  0  0  0  0  0  0  0  0
  -11.9575    1.0836  -25.2636 H   0  0  0  0  0  0  0  0  0  0  0  0
  -13.8684    0.0886  -23.9415 H   0  0  0  0  0  0  0  0  0  0  0  0
  -11.0037   -1.9757  -21.5495 H   0  0  0  0  0  0  0  0  0  0  0  0
   -8.2996   -2.1286  -25.1992 H   0  0  0  0  0  0  0  0  0  0  0  0
   -6.9050   -1.4762  -24.3006 H   0  0  0  0  0  0  0  0  0  0  0  0
   -6.2053    0.5849  -24.9198 H   0  0  0  0  0  0  0  0  0  0  0  0
   -7.3491    1.7098  -25.6879 H   0  0  0  0  0  0  0  0  0  0  0  0
   -5.7762   -0.7995  -27.0929 O   0  0  0  0  0  0  0  0  0  0  0  0
   -5.6012   -1.0999  -28.4358 N   0  0  0  0  0  0  0  0  0  0  0  0
   -7.8167    1.3490  -28.4255 H   0  0  0  0  0  0  0  0  0  0  0  0
   -7.5146   -0.0064  -30.8672 H   0  0  0  0  0  0  0  0  0  0  0  0
   -6.2291   -1.2349  -31.0263 H   0  0  0  0  0  0  0  0  0  0  0  0
   -5.8338    0.5034  -31.0006 H   0  0  0  0  0  0  0  0  0  0  0  0
  1  2  1  0
  2  3  1  0
  3  4  2  0
  4  5  1  0
  5  6  1  0
  6  7  1  0
  8  7  1  6
  8  9  1  0
  9 10  2  0
  9 11  1  0
 11 12  1  0
 12 13  2  0
 13 14  1  0
 14 15  2  0
 15 16  1  0
 16 17  2  0
 17 18  1  0
 18 19  2  0
 19 20  1  0
 20 21  2  0
 20 22  1  0
 19 23  1  0
 18 24  1  0
 17 25  1  0
 15 26  1  0
 13 27  1  0
 11 28  1  0
 28 29  1  0
 29 30  1  0
 30 31  1  0
 30 32  1  0
 30 33  1  0
 29 34  1  1
 28 35  1  0
 28 36  1  0
  8 37  1  0
 37 38  2  0
 38 39  1  0
 39 40  1  0
 39 41  2  0
 41 42  1  0
 42 43  2  0
 43 44  1  0
 44 45  2  0
 42 46  1  0
 41 47  1  0
 38 48  1  0
  7 49  1  0
  7 50  1  0
  5 51  1  0
  5 52  1  0
  4 53  1  0
 53 54  1  0
  3 55  1  0
  1 56  1  0
  1 57  1  0
  1 58  1  0
 54  2  2  0
 44  6  1  0
 29  8  1  0
 43 37  1  0
 21 12  1  0
 21 16  1  0
M  END
>  <cnnaffinities>  (65) 
[6.18256, 6.392]

>  <score>  (65) 
6.18256

>  <index>  (65) 
67

>  <Smiles>  (65) 
C(c1c(c(C(N2C([C@@]3(C(=O)N(c4c(nc(c5c(c(c(c(c45)[H])[H])[H])[H])[H])[H])C([C@@]3(C([H])([H])[H])[H])([H])[H])c3c(c(F)c(c(c3C2=O)[H])[H])[H])([H])[H])([H])[H])on1)[H])([H])([H])[H]

>  <h>  (65) 
<NA>

>  <Training>  (65) 
True

>  <Success>  (65) 
True

>  <enamine_searched>  (65) 
False

>  <enamine_id>  (65) 
nan

$$$$

     RDKit          3D

 65 70  0  0  0  0  0  0  0  0999 V2000
   -8.6545    0.6044  -21.3344 O   0  0  0  0  0  0  0  0  0  0  0  0
   -8.3268   -0.3824  -21.9675 C   0  0  0  0  0  0  0  0  0  0  0  0
   -7.4253   -1.4330  -21.2731 C   0  0  0  0  0  0  0  0  0  0  0  0
   -6.5766   -0.8316  -20.1758 C   0  0  0  0  0  0  0  0  0  0  0  0
   -6.8783   -1.0383  -18.8522 C   0  0  0  0  0  0  0  0  0  0  0  0
   -6.1947   -0.5333  -17.7895 N   0  0  0  0  0  0  0  0  0  0  0  0
   -5.1548    0.2206  -18.0609 C   0  0  0  0  0  0  0  0  0  0  0  0
   -4.7229    0.5348  -19.3805 C   0  0  0  0  0  0  0  0  0  0  0  0
   -3.5979    1.3681  -19.6219 C   0  0  0  0  0  0  0  0  0  0  0  0
   -3.2093    1.6591  -20.9035 C   0  0  0  0  0  0  0  0  0  0  0  0
   -3.9288    1.1266  -21.9965 C   0  0  0  0  0  0  0  0  0  0  0  0
   -5.0189    0.3155  -21.7862 C   0  0  0  0  0  0  0  0  0  0  0  0
   -5.4522    0.0000  -20.4688 C   0  0  0  0  0  0  0  0  0  0  0  0
   -5.5609   -0.0795  -22.6410 H   0  0  0  0  0  0  0  0  0  0  0  0
   -3.6204    1.3662  -23.0095 H   0  0  0  0  0  0  0  0  0  0  0  0
   -2.3544    2.3033  -21.0906 H   0  0  0  0  0  0  0  0  0  0  0  0
   -3.0524    1.7770  -18.7758 H   0  0  0  0  0  0  0  0  0  0  0  0
   -4.5978    0.6279  -17.2168 H   0  0  0  0  0  0  0  0  0  0  0  0
   -7.7311   -1.6616  -18.5861 H   0  0  0  0  0  0  0  0  0  0  0  0
   -8.0913   -2.1866  -20.8360 H   0  0  0  0  0  0  0  0  0  0  0  0
   -6.7881   -1.9591  -21.9913 H   0  0  0  0  0  0  0  0  0  0  0  0
   -8.7269   -0.6036  -23.2882 N   0  0  0  0  0  0  0  0  0  0  0  0
   -9.0039   -1.9457  -23.7774 C   0  0  0  0  0  0  0  0  0  0  0  0
   -7.8022   -2.6995  -24.3069 C   0  0  0  0  0  0  0  0  0  0  0  0
   -7.8660   -4.0882  -24.4126 C   0  0  0  0  0  0  0  0  0  0  0  0
   -6.7765   -4.8083  -24.8887 C   0  0  0  0  0  0  0  0  0  0  0  0
   -5.6058   -4.1625  -25.2666 C   0  0  0  0  0  0  0  0  0  0  0  0
   -5.5532   -2.7800  -25.1656 C   0  0  0  0  0  0  0  0  0  0  0  0
   -4.1029   -1.9388  -25.6464 Cl  0  0  0  0  0  0  0  0  0  0  0  0
   -6.6343   -2.0453  -24.6956 C   0  0  0  0  0  0  0  0  0  0  0  0
   -6.5478   -0.9655  -24.6284 H   0  0  0  0  0  0  0  0  0  0  0  0
   -4.7532   -4.7221  -25.6369 H   0  0  0  0  0  0  0  0  0  0  0  0
   -6.8400   -5.8889  -24.9684 H   0  0  0  0  0  0  0  0  0  0  0  0
   -8.7748   -4.6125  -24.1253 H   0  0  0  0  0  0  0  0  0  0  0  0
   -9.4648   -2.5183  -22.9639 H   0  0  0  0  0  0  0  0  0  0  0  0
   -9.7710   -1.8898  -24.5564 H   0  0  0  0  0  0  0  0  0  0  0  0
   -9.0856    0.5548  -24.1283 C   0  0  2  0  0  0  0  0  0  0  0  0
   -9.1314    0.3354  -25.6704 C   0  0  0  0  0  0  0  0  0  0  0  0
   -9.0289    1.7658  -26.2613 C   0  0  0  0  0  0  0  0  0  0  0  0
   -8.9658    2.6321  -25.0083 C   0  0  2  0  0  0  0  0  0  0  0  0
   -8.1464    1.7755  -24.0548 C   0  0  0  0  0  0  0  0  0  0  0  0
   -8.0647    2.1985  -23.0519 H   0  0  0  0  0  0  0  0  0  0  0  0
   -7.1513    1.5608  -24.4562 H   0  0  0  0  0  0  0  0  0  0  0  0
  -10.3624    2.5855  -24.3689 N   0  0  2  0  0  4  0  0  0  0  0  0
  -10.6217    3.6606  -23.3664 C   0  0  0  0  0  0  0  0  0  0  0  0
  -10.6835    5.0512  -23.9724 C   0  0  0  0  0  0  0  0  0  0  0  0
   -9.3998    5.8938  -23.9625 C   0  0  0  0  0  0  0  0  0  0  0  0
   -9.9617    6.8519  -23.0568 O   0  0  0  0  0  0  0  0  0  0  0  0
  -11.1997    6.1268  -23.0206 C   0  0  0  0  0  0  0  0  0  0  0  0
  -11.4377    5.7717  -22.0126 H   0  0  0  0  0  0  0  0  0  0  0  0
  -12.0489    6.6926  -23.4160 H   0  0  0  0  0  0  0  0  0  0  0  0
   -8.5317    5.3855  -23.5217 H   0  0  0  0  0  0  0  0  0  0  0  0
   -9.1305    6.3446  -24.9264 H   0  0  0  0  0  0  0  0  0  0  0  0
  -11.1930    5.0295  -24.9381 H   0  0  0  0  0  0  0  0  0  0  0  0
   -9.8298    3.6409  -22.6057 H   0  0  0  0  0  0  0  0  0  0  0  0
  -11.5556    3.4485  -22.8274 H   0  0  0  0  0  0  0  0  0  0  0  0
  -10.4432    1.1910  -23.7706 C   0  0  0  0  0  0  0  0  0  0  0  0
  -11.3088    0.6685  -24.1886 H   0  0  0  0  0  0  0  0  0  0  0  0
  -10.5616    1.2760  -22.6910 H   0  0  0  0  0  0  0  0  0  0  0  0
  -11.0911    2.7015  -25.0928 H   0  0  0  0  0  0  0  0  0  0  0  0
   -8.6391    3.6626  -25.1538 H   0  0  0  0  0  0  0  0  0  0  0  0
   -8.1087    1.9007  -26.8387 H   0  0  0  0  0  0  0  0  0  0  0  0
   -9.8738    2.0352  -26.9069 H   0  0  0  0  0  0  0  0  0  0  0  0
   -8.2845   -0.2643  -26.0069 H   0  0  0  0  0  0  0  0  0  0  0  0
  -10.0439   -0.1619  -26.0067 H   0  0  0  0  0  0  0  0  0  0  0  0
  1  2  2  0
  2  3  1  0
  3  4  1  0
  4  5  2  0
  5  6  1  0
  6  7  2  0
  7  8  1  0
  8  9  2  0
  9 10  1  0
 10 11  2  0
 11 12  1  0
 12 13  2  0
 12 14  1  0
 11 15  1  0
 10 16  1  0
  9 17  1  0
  7 18  1  0
  5 19  1  0
  3 20  1  0
  3 21  1  0
  2 22  1  0
 22 23  1  0
 23 24  1  0
 24 25  2  0
 25 26  1  0
 26 27  2  0
 27 28  1  0
 28 29  1  0
 28 30  2  0
 30 31  1  0
 27 32  1  0
 26 33  1  0
 25 34  1  0
 23 35  1  0
 23 36  1  0
 37 22  1  1
 37 38  1  0
 38 39  1  0
 39 40  1  0
 40 41  1  0
 41 42  1  0
 41 43  1  0
 40 44  1  0
 44 45  1  0
 45 46  1  0
 46 47  1  0
 47 48  1  0
 48 49  1  0
 49 50  1  0
 49 51  1  0
 47 52  1  0
 47 53  1  0
 46 54  1  0
 45 55  1  0
 45 56  1  0
 44 57  1  0
 57 58  1  0
 57 59  1  0
 44 60  1  6
 40 61  1  6
 39 62  1  0
 39 63  1  0
 38 64  1  0
 38 65  1  0
 13  4  1  0
 30 24  1  0
 41 37  1  0
 49 46  1  0
 13  8  1  0
 57 37  1  0
M  CHG  1  44   1
M  END
>  <cnnaffinities>  (66) 
[5.88328, 5.87669, 6.00138, 5.84396, 5.98464, 5.90156, 5.92889]

>  <score>  (66) 
5.88328

>  <index>  (66) 
68

>  <Smiles>  (66) 
O=C(C(c1c(nc(c2c(c(c(c(c12)[H])[H])[H])[H])[H])[H])([H])[H])N(C(c1c(c(c(c(Cl)c1[H])[H])[H])[H])([H])[H])[C@]12C(C([C@](C1([H])[H])([N@+](C(C1(C(OC1([H])[H])([H])[H])[H])([H])[H])(C2([H])[H])[H])[H])([H])[H])([H])[H]

>  <h>  (66) 
<NA>

>  <Training>  (66) 
True

>  <Success>  (66) 
True

>  <enamine_searched>  (66) 
False

>  <enamine_id>  (66) 
nan

$$$$

     RDKit          3D

 63 67  0  0  0  0  0  0  0  0999 V2000
  -10.6826   -5.9138  -28.1870 C   0  0  0  0  0  0  0  0  0  0  0  0
  -10.2990   -5.5099  -26.9767 C   0  0  0  0  0  0  0  0  0  0  0  0
   -9.9307   -4.0631  -26.8487 C   0  0  0  0  0  0  0  0  0  0  0  0
   -9.8307   -3.3620  -27.8458 O   0  0  0  0  0  0  0  0  0  0  0  0
   -9.7540   -3.5430  -25.5742 N   0  0  0  0  0  0  0  0  0  0  0  0
  -10.3974   -4.1330  -24.4002 C   0  0  0  0  0  0  0  0  0  0  0  0
  -11.1404   -3.0534  -23.6324 C   0  0  0  0  0  0  0  0  0  0  0  0
  -10.1335   -2.0692  -23.0890 C   0  0  0  0  0  0  0  0  0  0  0  0
   -9.1408   -1.6402  -24.1668 C   0  0  0  0  0  0  0  0  0  0  0  0
   -8.9821   -2.3693  -25.3679 C   0  0  0  0  0  0  0  0  0  0  0  0
   -8.0357   -1.9558  -26.3252 C   0  0  0  0  0  0  0  0  0  0  0  0
   -7.2558   -0.8334  -26.1037 C   0  0  0  0  0  0  0  0  0  0  0  0
   -7.3953   -0.1009  -24.9308 C   0  0  0  0  0  0  0  0  0  0  0  0
   -8.3528   -0.5027  -24.0089 C   0  0  0  0  0  0  0  0  0  0  0  0
   -8.5105    0.4181  -22.7606 N   0  0  1  0  0  4  0  0  0  0  0  0
   -9.6733    1.4524  -22.8756 C   0  0  0  0  0  0  0  0  0  0  0  0
   -9.4138    2.3517  -24.0415 C   0  0  0  0  0  0  0  0  0  0  0  0
  -10.0842    2.1660  -25.2508 C   0  0  0  0  0  0  0  0  0  0  0  0
   -9.8286    2.9992  -26.3317 C   0  0  0  0  0  0  0  0  0  0  0  0
   -8.9054    4.0330  -26.2161 C   0  0  0  0  0  0  0  0  0  0  0  0
   -8.2377    4.2105  -25.0090 C   0  0  0  0  0  0  0  0  0  0  0  0
   -7.0765    5.5003  -24.8537 Cl  0  0  0  0  0  0  0  0  0  0  0  0
   -8.4727    3.3775  -23.9247 C   0  0  0  0  0  0  0  0  0  0  0  0
   -7.9294    3.5286  -22.9909 H   0  0  0  0  0  0  0  0  0  0  0  0
   -8.6969    4.6894  -27.0537 H   0  0  0  0  0  0  0  0  0  0  0  0
  -10.3484    2.8399  -27.2732 H   0  0  0  0  0  0  0  0  0  0  0  0
  -10.7920    1.3427  -25.3343 H   0  0  0  0  0  0  0  0  0  0  0  0
   -9.7102    2.0071  -21.9350 H   0  0  0  0  0  0  0  0  0  0  0  0
  -10.6080    0.9000  -23.0007 H   0  0  0  0  0  0  0  0  0  0  0  0
   -8.5373   -0.2623  -21.4889 C   0  0  0  0  0  0  0  0  0  0  0  0
   -9.4054   -0.0107  -20.6900 O   0  0  0  0  0  0  0  0  0  0  0  0
   -7.4573   -1.3097  -21.2454 C   0  0  0  0  0  0  0  0  0  0  0  0
   -6.5460   -0.8296  -20.1540 C   0  0  0  0  0  0  0  0  0  0  0  0
   -6.8710   -1.0419  -18.8416 C   0  0  0  0  0  0  0  0  0  0  0  0
   -6.1872   -0.5406  -17.7800 N   0  0  0  0  0  0  0  0  0  0  0  0
   -5.1467    0.2087  -18.0507 C   0  0  0  0  0  0  0  0  0  0  0  0
   -4.6952    0.5170  -19.3630 C   0  0  0  0  0  0  0  0  0  0  0  0
   -3.5788    1.3578  -19.6054 C   0  0  0  0  0  0  0  0  0  0  0  0
   -3.1976    1.6557  -20.8832 C   0  0  0  0  0  0  0  0  0  0  0  0
   -3.9067    1.1177  -21.9818 C   0  0  0  0  0  0  0  0  0  0  0  0
   -4.9823    0.2907  -21.7732 C   0  0  0  0  0  0  0  0  0  0  0  0
   -5.4142   -0.0217  -20.4566 C   0  0  0  0  0  0  0  0  0  0  0  0
   -5.5063   -0.1182  -22.6363 H   0  0  0  0  0  0  0  0  0  0  0  0
   -3.6020    1.3702  -22.9946 H   0  0  0  0  0  0  0  0  0  0  0  0
   -2.3571    2.3189  -21.0692 H   0  0  0  0  0  0  0  0  0  0  0  0
   -3.0421    1.7684  -18.7528 H   0  0  0  0  0  0  0  0  0  0  0  0
   -4.5981    0.6180  -17.1998 H   0  0  0  0  0  0  0  0  0  0  0  0
   -7.7506   -1.6357  -18.5935 H   0  0  0  0  0  0  0  0  0  0  0  0
   -6.9256   -1.5335  -22.1719 H   0  0  0  0  0  0  0  0  0  0  0  0
   -7.9802   -2.2217  -20.9323 H   0  0  0  0  0  0  0  0  0  0  0  0
   -7.6312    1.0013  -22.7991 H   0  0  0  0  0  0  0  0  0  0  0  0
   -6.8272    0.8148  -24.7692 H   0  0  0  0  0  0  0  0  0  0  0  0
   -6.5433   -0.5176  -26.8615 H   0  0  0  0  0  0  0  0  0  0  0  0
   -7.9271   -2.5078  -27.2477 H   0  0  0  0  0  0  0  0  0  0  0  0
  -10.6608   -1.1933  -22.6942 H   0  0  0  0  0  0  0  0  0  0  0  0
   -9.5992   -2.5176  -22.2388 H   0  0  0  0  0  0  0  0  0  0  0  0
  -11.8269   -2.4710  -24.2525 H   0  0  0  0  0  0  0  0  0  0  0  0
  -11.7338   -3.5182  -22.8408 H   0  0  0  0  0  0  0  0  0  0  0  0
  -11.0839   -4.9170  -24.7151 H   0  0  0  0  0  0  0  0  0  0  0  0
   -9.6347   -4.5883  -23.7494 H   0  0  0  0  0  0  0  0  0  0  0  0
  -10.1853   -6.1846  -26.1277 H   0  0  0  0  0  0  0  0  0  0  0  0
  -10.6975   -5.1649  -28.9764 H   0  0  0  0  0  0  0  0  0  0  0  0
  -10.9977   -6.9267  -28.4145 H   0  0  0  0  0  0  0  0  0  0  0  0
  1  2  2  0
  2  3  1  0
  3  4  2  0
  3  5  1  0
  5  6  1  0
  6  7  1  0
  7  8  1  0
  8  9  1  0
  9 10  2  0
 10 11  1  0
 11 12  2  0
 12 13  1  0
 13 14  2  0
 14 15  1  0
 15 16  1  0
 16 17  1  0
 17 18  2  0
 18 19  1  0
 19 20  2  0
 20 21  1  0
 21 22  1  0
 21 23  2  0
 23 24  1  0
 20 25  1  0
 19 26  1  0
 18 27  1  0
 16 28  1  0
 16 29  1  0
 15 30  1  0
 30 31  2  0
 30 32  1  0
 32 33  1  0
 33 34  2  0
 34 35  1  0
 35 36  2  0
 36 37  1  0
 37 38  2  0
 38 39  1  0
 39 40  2  0
 40 41  1  0
 41 42  2  0
 41 43  1  0
 40 44  1  0
 39 45  1  0
 38 46  1  0
 36 47  1  0
 34 48  1  0
 32 49  1  0
 32 50  1  0
 15 51  1  1
 13 52  1  0
 12 53  1  0
 11 54  1  0
  8 55  1  0
  8 56  1  0
  7 57  1  0
  7 58  1  0
  6 59  1  0
  6 60  1  0
  2 61  1  0
  1 62  1  0
  1 63  1  0
 10  5  1  0
 23 17  1  0
 42 33  1  0
 14  9  1  0
 42 37  1  0
M  CHG  1  15   1
M  END
>  <cnnaffinities>  (67) 
[6.68393]

>  <score>  (67) 
6.68393

>  <index>  (67) 
69

>  <Smiles>  (67) 
C(=C(C(=O)N1C(C(C(c2c1c(c(c(c2[N@@+](C(c1c(c(c(c(Cl)c1[H])[H])[H])[H])([H])[H])(C(=O)C(c1c(nc(c2c(c(c(c(c12)[H])[H])[H])[H])[H])[H])([H])[H])[H])[H])[H])[H])([H])[H])([H])[H])([H])[H])[H])([H])[H]

>  <h>  (67) 
<NA>

>  <Training>  (67) 
True

>  <Success>  (67) 
True

>  <enamine_searched>  (67) 
False

>  <enamine_id>  (67) 
nan

$$$$

     RDKit          3D

 52 54  0  0  0  0  0  0  0  0999 V2000
   -6.3723   -6.8981  -26.9829 C   0  0  0  0  0  0  0  0  0  0  0  0
   -5.9405   -5.7182  -26.1087 C   0  0  0  0  0  0  0  0  0  0  0  0
   -4.7385   -5.0148  -26.7463 C   0  0  0  0  0  0  0  0  0  0  0  0
   -4.3642   -4.1975  -26.1216 H   0  0  0  0  0  0  0  0  0  0  0  0
   -3.9076   -5.7125  -26.9009 H   0  0  0  0  0  0  0  0  0  0  0  0
   -4.9941   -4.5986  -27.7272 H   0  0  0  0  0  0  0  0  0  0  0  0
   -7.0558   -4.6931  -25.8294 C   0  0  0  0  0  0  0  0  0  0  0  0
   -8.3030   -5.0833  -24.9895 C   0  0  0  0  0  0  0  0  0  0  0  0
   -9.2709   -5.9591  -25.8021 C   0  0  0  0  0  0  0  0  0  0  0  0
   -9.5078   -5.4985  -26.7690 H   0  0  0  0  0  0  0  0  0  0  0  0
   -8.8827   -6.9619  -26.0013 H   0  0  0  0  0  0  0  0  0  0  0  0
  -10.2200   -6.0944  -25.2700 H   0  0  0  0  0  0  0  0  0  0  0  0
   -9.0536   -3.7817  -24.5745 C   0  0  0  0  0  0  0  0  0  0  0  0
   -8.8699   -3.3512  -23.1079 C   0  0  0  0  0  0  0  0  0  0  0  0
   -7.5319   -3.6179  -22.5978 N   0  0  0  0  0  0  0  0  0  0  0  0
   -6.7713   -2.7610  -21.8402 C   0  0  0  0  0  0  0  0  0  0  0  0
   -5.6002   -3.0093  -21.6001 O   0  0  0  0  0  0  0  0  0  0  0  0
   -7.4203   -1.4773  -21.2625 C   0  0  0  0  0  0  0  0  0  0  0  0
   -6.5801   -0.8309  -20.1819 C   0  0  0  0  0  0  0  0  0  0  0  0
   -6.8740   -1.0435  -18.8587 C   0  0  0  0  0  0  0  0  0  0  0  0
   -6.1925   -0.5386  -17.7956 N   0  0  0  0  0  0  0  0  0  0  0  0
   -5.1570    0.2205  -18.0636 C   0  0  0  0  0  0  0  0  0  0  0  0
   -4.7206    0.5301  -19.3815 C   0  0  0  0  0  0  0  0  0  0  0  0
   -3.5915    1.3584  -19.6199 C   0  0  0  0  0  0  0  0  0  0  0  0
   -3.1891    1.6327  -20.9003 C   0  0  0  0  0  0  0  0  0  0  0  0
   -3.8991    1.0875  -21.9922 C   0  0  0  0  0  0  0  0  0  0  0  0
   -4.9972    0.2862  -21.7865 C   0  0  0  0  0  0  0  0  0  0  0  0
   -5.4437   -0.0124  -20.4723 C   0  0  0  0  0  0  0  0  0  0  0  0
   -5.5237   -0.1316  -22.6374 H   0  0  0  0  0  0  0  0  0  0  0  0
   -3.5745    1.3117  -23.0037 H   0  0  0  0  0  0  0  0  0  0  0  0
   -2.3284    2.2701  -21.0873 H   0  0  0  0  0  0  0  0  0  0  0  0
   -3.0506    1.7719  -18.7718 H   0  0  0  0  0  0  0  0  0  0  0  0
   -4.6004    0.6267  -17.2172 H   0  0  0  0  0  0  0  0  0  0  0  0
   -7.7207   -1.6698  -18.5861 H   0  0  0  0  0  0  0  0  0  0  0  0
   -8.4068   -1.7222  -20.8425 H   0  0  0  0  0  0  0  0  0  0  0  0
   -7.6024   -0.7574  -22.0730 H   0  0  0  0  0  0  0  0  0  0  0  0
   -7.0227   -4.9827  -22.7744 C   0  0  0  0  0  0  0  0  0  0  0  0
   -7.8985   -5.8144  -23.7078 C   0  0  0  0  0  0  0  0  0  0  0  0
   -7.3975   -6.7585  -23.9474 H   0  0  0  0  0  0  0  0  0  0  0  0
   -8.7998   -6.1241  -23.1858 H   0  0  0  0  0  0  0  0  0  0  0  0
   -6.9501   -5.4836  -21.8004 H   0  0  0  0  0  0  0  0  0  0  0  0
   -6.0022   -4.9410  -23.1650 H   0  0  0  0  0  0  0  0  0  0  0  0
   -9.0761   -2.2830  -23.0310 H   0  0  0  0  0  0  0  0  0  0  0  0
   -9.6222   -3.8562  -22.4871 H   0  0  0  0  0  0  0  0  0  0  0  0
  -10.1319   -3.8940  -24.7405 H   0  0  0  0  0  0  0  0  0  0  0  0
   -8.7555   -2.9615  -25.2349 H   0  0  0  0  0  0  0  0  0  0  0  0
   -7.4099   -4.3110  -26.7969 H   0  0  0  0  0  0  0  0  0  0  0  0
   -6.5913   -3.8242  -25.3448 H   0  0  0  0  0  0  0  0  0  0  0  0
   -5.5894   -6.1225  -25.1545 H   0  0  0  0  0  0  0  0  0  0  0  0
   -5.5100   -7.3785  -27.4577 H   0  0  0  0  0  0  0  0  0  0  0  0
   -7.0392   -6.5746  -27.7881 H   0  0  0  0  0  0  0  0  0  0  0  0
   -6.8942   -7.6724  -26.4154 H   0  0  0  0  0  0  0  0  0  0  0  0
  1  2  1  0
  2  3  1  0
  3  4  1  0
  3  5  1  0
  3  6  1  0
  2  7  1  0
  7  8  1  0
  8  9  1  0
  9 10  1  0
  9 11  1  0
  9 12  1  0
  8 13  1  0
 13 14  1  0
 14 15  1  0
 15 16  1  0
 16 17  2  0
 16 18  1  0
 18 19  1  0
 19 20  2  0
 20 21  1  0
 21 22  2  0
 22 23  1  0
 23 24  2  0
 24 25  1  0
 25 26  2  0
 26 27  1  0
 27 28  2  0
 27 29  1  0
 26 30  1  0
 25 31  1  0
 24 32  1  0
 22 33  1  0
 20 34  1  0
 18 35  1  0
 18 36  1  0
 15 37  1  0
 37 38  1  0
 38 39  1  0
 38 40  1  0
 37 41  1  0
 37 42  1  0
 14 43  1  0
 14 44  1  0
 13 45  1  0
 13 46  1  0
  7 47  1  0
  7 48  1  0
  2 49  1  0
  1 50  1  0
  1 51  1  0
  1 52  1  0
 38  8  1  0
 28 19  1  0
 28 23  1  0
M  END
>  <cnnaffinities>  (68) 
[5.16311, 5.17083, 5.00414, 5.11144, 4.98325, 5.11141, 5.02755, 5.02755, 5.02759, 5.02758]

>  <score>  (68) 
5.16311

>  <index>  (68) 
70

>  <Smiles>  (68) 
C(C(C([H])([H])[H])(C(C1(C([H])([H])[H])C(C(N(C(=O)C(c2c(nc(c3c(c(c(c(c23)[H])[H])[H])[H])[H])[H])([H])[H])C(C1([H])[H])([H])[H])([H])[H])([H])[H])([H])[H])[H])([H])([H])[H]

>  <h>  (68) 
<NA>

>  <Training>  (68) 
True

>  <Success>  (68) 
True

>  <enamine_searched>  (68) 
False

>  <enamine_id>  (68) 
nan

$$$$

     RDKit          3D

 50 54  0  0  0  0  0  0  0  0999 V2000
  -10.4123   -0.9958  -23.3781 C   0  0  0  0  0  0  0  0  0  0  0  0
   -8.9847   -1.3765  -22.9880 C   0  0  1  0  0  0  0  0  0  0  0  0
   -8.3983   -0.4631  -21.8974 C   0  0  0  0  0  0  0  0  0  0  0  0
   -7.4085   -1.3043  -21.2448 N   0  0  0  0  0  0  0  0  0  0  0  0
   -6.5929   -0.8360  -20.1857 C   0  0  0  0  0  0  0  0  0  0  0  0
   -6.9082   -1.0999  -18.8768 C   0  0  0  0  0  0  0  0  0  0  0  0
   -6.2360   -0.5819  -17.8155 N   0  0  0  0  0  0  0  0  0  0  0  0
   -5.2070    0.1925  -18.0670 C   0  0  0  0  0  0  0  0  0  0  0  0
   -4.7511    0.5203  -19.3791 C   0  0  0  0  0  0  0  0  0  0  0  0
   -3.6152    1.3404  -19.6181 C   0  0  0  0  0  0  0  0  0  0  0  0
   -3.2176    1.6111  -20.9002 C   0  0  0  0  0  0  0  0  0  0  0  0
   -3.9281    1.0781  -21.9990 C   0  0  0  0  0  0  0  0  0  0  0  0
   -5.0268    0.2821  -21.7938 C   0  0  0  0  0  0  0  0  0  0  0  0
   -5.4659   -0.0058  -20.4760 C   0  0  0  0  0  0  0  0  0  0  0  0
   -5.5686   -0.1468  -22.6290 H   0  0  0  0  0  0  0  0  0  0  0  0
   -3.6046    1.3019  -23.0106 H   0  0  0  0  0  0  0  0  0  0  0  0
   -2.3499    2.2392  -21.0851 H   0  0  0  0  0  0  0  0  0  0  0  0
   -3.0651    1.7331  -18.7673 H   0  0  0  0  0  0  0  0  0  0  0  0
   -4.6759    0.6056  -17.2075 H   0  0  0  0  0  0  0  0  0  0  0  0
   -7.7492   -1.7471  -18.6314 H   0  0  0  0  0  0  0  0  0  0  0  0
   -7.5914   -2.6502  -21.4726 C   0  0  0  0  0  0  0  0  0  0  0  0
   -6.9016   -3.5233  -20.9893 O   0  0  0  0  0  0  0  0  0  0  0  0
   -8.7871   -2.8327  -22.4227 C   0  0  1  0  0  0  0  0  0  0  0  0
   -9.9866   -3.2740  -21.5474 C   0  0  0  0  0  0  0  0  0  0  0  0
  -11.1511   -3.6670  -22.3342 N   0  0  0  0  0  0  0  0  0  0  0  0
  -12.5142   -3.4573  -21.8495 C   0  0  0  0  0  0  0  0  0  0  0  0
  -13.3530   -2.6239  -22.7343 C   0  0  0  0  0  0  0  0  0  0  0  0
  -14.0501   -1.9944  -23.4073 N   0  0  0  0  0  0  0  0  0  0  0  0
  -12.4856   -2.9811  -20.8686 H   0  0  0  0  0  0  0  0  0  0  0  0
  -13.0267   -4.4150  -21.7494 H   0  0  0  0  0  0  0  0  0  0  0  0
  -10.9953   -4.5126  -23.4060 C   0  0  0  0  0  0  0  0  0  0  0  0
  -11.9472   -5.0371  -23.9578 O   0  0  0  0  0  0  0  0  0  0  0  0
   -9.5892   -4.7132  -23.9100 C   0  0  0  0  0  0  0  0  0  0  0  0
   -9.3553   -5.6971  -24.8764 C   0  0  0  0  0  0  0  0  0  0  0  0
   -8.0911   -5.9204  -25.3925 C   0  0  0  0  0  0  0  0  0  0  0  0
   -7.0584   -5.1168  -24.9246 C   0  0  0  0  0  0  0  0  0  0  0  0
   -5.8282   -5.3147  -25.4231 F   0  0  0  0  0  0  0  0  0  0  0  0
   -7.2501   -4.1221  -23.9844 C   0  0  0  0  0  0  0  0  0  0  0  0
   -8.5315   -3.9178  -23.4498 C   0  0  0  0  0  0  0  0  0  0  0  0
   -6.3921   -3.5319  -23.6742 H   0  0  0  0  0  0  0  0  0  0  0  0
   -7.9010   -6.6879  -26.1424 H   0  0  0  0  0  0  0  0  0  0  0  0
  -10.2025   -6.2633  -25.2428 H   0  0  0  0  0  0  0  0  0  0  0  0
   -9.6519   -4.0942  -20.9003 H   0  0  0  0  0  0  0  0  0  0  0  0
  -10.2475   -2.4370  -20.8970 H   0  0  0  0  0  0  0  0  0  0  0  0
   -9.1675   -0.1348  -21.1810 H   0  0  0  0  0  0  0  0  0  0  0  0
   -7.9402    0.4475  -22.2962 H   0  0  0  0  0  0  0  0  0  0  0  0
   -8.3406   -1.3062  -23.8731 H   0  0  0  0  0  0  0  0  0  0  0  0
  -10.4595   -0.0039  -23.8361 H   0  0  0  0  0  0  0  0  0  0  0  0
  -11.0715   -0.9743  -22.5029 H   0  0  0  0  0  0  0  0  0  0  0  0
  -10.8243   -1.7226  -24.0836 H   0  0  0  0  0  0  0  0  0  0  0  0
  1  2  1  0
  2  3  1  0
  3  4  1  0
  4  5  1  0
  5  6  2  0
  6  7  1  0
  7  8  2  0
  8  9  1  0
  9 10  2  0
 10 11  1  0
 11 12  2  0
 12 13  1  0
 13 14  2  0
 13 15  1  0
 12 16  1  0
 11 17  1  0
 10 18  1  0
  8 19  1  0
  6 20  1  0
  4 21  1  0
 21 22  2  0
 21 23  1  0
 23 24  1  1
 24 25  1  0
 25 26  1  0
 26 27  1  0
 27 28  3  0
 26 29  1  0
 26 30  1  0
 25 31  1  0
 31 32  2  0
 31 33  1  0
 33 34  2  0
 34 35  1  0
 35 36  2  0
 36 37  1  0
 36 38  1  0
 38 39  2  0
 38 40  1  0
 35 41  1  0
 34 42  1  0
 24 43  1  0
 24 44  1  0
  3 45  1  0
  3 46  1  0
  2 47  1  6
  1 48  1  0
  1 49  1  0
  1 50  1  0
 23  2  1  0
 39 33  1  0
 14  5  1  0
 39 23  1  0
 14  9  1  0
M  END
>  <cnnaffinities>  (69) 
[6.28567]

>  <score>  (69) 
6.28567

>  <index>  (69) 
71

>  <Smiles>  (69) 
C([C@]1(C(N(c2c(nc(c3c(c(c(c(c23)[H])[H])[H])[H])[H])[H])C(=O)[C@]21C(N(C(C#N)([H])[H])C(=O)c1c(c(c(F)c(c21)[H])[H])[H])([H])[H])([H])[H])[H])([H])([H])[H]

>  <h>  (69) 
<NA>

>  <Training>  (69) 
True

>  <Success>  (69) 
True

>  <enamine_searched>  (69) 
False

>  <enamine_id>  (69) 
nan

$$$$

     RDKit          3D

 41 44  0  0  0  0  0  0  0  0999 V2000
   -8.7194    0.6818  -21.2056 O   0  0  0  0  0  0  0  0  0  0  0  0
   -8.6631   -0.4468  -21.6754 C   0  0  0  0  0  0  0  0  0  0  0  0
   -7.5317   -1.4040  -21.2836 C   0  0  0  0  0  0  0  0  0  0  0  0
   -6.6538   -0.8450  -20.2036 C   0  0  0  0  0  0  0  0  0  0  0  0
   -6.9715   -1.0547  -18.8870 C   0  0  0  0  0  0  0  0  0  0  0  0
   -6.2910   -0.5635  -17.8161 N   0  0  0  0  0  0  0  0  0  0  0  0
   -5.2404    0.1738  -18.0768 C   0  0  0  0  0  0  0  0  0  0  0  0
   -4.7891    0.4880  -19.3894 C   0  0  0  0  0  0  0  0  0  0  0  0
   -3.6451    1.2953  -19.6172 C   0  0  0  0  0  0  0  0  0  0  0  0
   -3.2542    1.6004  -20.8921 C   0  0  0  0  0  0  0  0  0  0  0  0
   -3.9950    1.1136  -21.9950 C   0  0  0  0  0  0  0  0  0  0  0  0
   -5.1068    0.3333  -21.7988 C   0  0  0  0  0  0  0  0  0  0  0  0
   -5.5281   -0.0153  -20.4887 C   0  0  0  0  0  0  0  0  0  0  0  0
   -5.6849   -0.0026  -22.6548 H   0  0  0  0  0  0  0  0  0  0  0  0
   -3.6767    1.3665  -23.0016 H   0  0  0  0  0  0  0  0  0  0  0  0
   -2.3881    2.2306  -21.0669 H   0  0  0  0  0  0  0  0  0  0  0  0
   -3.0907    1.6691  -18.7586 H   0  0  0  0  0  0  0  0  0  0  0  0
   -4.6884    0.5727  -17.2232 H   0  0  0  0  0  0  0  0  0  0  0  0
   -7.8379   -1.6650  -18.6412 H   0  0  0  0  0  0  0  0  0  0  0  0
   -7.9835   -2.3448  -20.9388 H   0  0  0  0  0  0  0  0  0  0  0  0
   -6.9422   -1.6514  -22.1733 H   0  0  0  0  0  0  0  0  0  0  0  0
   -9.6113   -0.9242  -22.5422 N   0  0  0  0  0  0  0  0  0  0  0  0
   -9.5787   -2.2363  -23.1962 C   0  0  0  0  0  0  0  0  0  0  0  0
  -10.3222   -3.3265  -22.4129 C   0  0  0  0  0  0  0  0  0  0  0  0
  -11.5627   -2.7489  -21.7079 C   0  0  0  0  0  0  0  0  0  0  0  0
  -12.4358   -1.8143  -22.5186 C   0  0  0  0  0  0  0  0  0  0  0  0
  -14.1419   -2.0740  -22.7117 S   0  0  0  0  0  0  0  0  0  0  0  0
  -14.3550   -0.5376  -23.4664 C   0  0  0  0  0  0  0  0  0  0  0  0
  -13.1778    0.1326  -23.5755 C   0  0  0  0  0  0  0  0  0  0  0  0
  -12.0593   -0.5976  -23.0337 C   0  0  0  0  0  0  0  0  0  0  0  0
  -10.6667   -0.0005  -22.9505 C   0  0  0  0  0  0  0  0  0  0  0  0
  -10.4038    0.4486  -23.9230 H   0  0  0  0  0  0  0  0  0  0  0  0
  -10.6734    0.8346  -22.2386 H   0  0  0  0  0  0  0  0  0  0  0  0
  -13.1257    1.1285  -24.0167 H   0  0  0  0  0  0  0  0  0  0  0  0
  -15.3374   -0.1550  -23.7144 H   0  0  0  0  0  0  0  0  0  0  0  0
  -12.1638   -3.5337  -21.2409 H   0  0  0  0  0  0  0  0  0  0  0  0
  -11.1664   -2.1214  -20.9027 H   0  0  0  0  0  0  0  0  0  0  0  0
   -9.6719   -3.7687  -21.6477 H   0  0  0  0  0  0  0  0  0  0  0  0
  -10.5756   -4.1497  -23.0954 H   0  0  0  0  0  0  0  0  0  0  0  0
  -10.1013   -2.1233  -24.1525 H   0  0  0  0  0  0  0  0  0  0  0  0
   -8.5467   -2.5397  -23.4111 H   0  0  0  0  0  0  0  0  0  0  0  0
  1  2  2  0
  2  3  1  0
  3  4  1  0
  4  5  2  0
  5  6  1  0
  6  7  2  0
  7  8  1  0
  8  9  2  0
  9 10  1  0
 10 11  2  0
 11 12  1  0
 12 13  2  0
 12 14  1  0
 11 15  1  0
 10 16  1  0
  9 17  1  0
  7 18  1  0
  5 19  1  0
  3 20  1  0
  3 21  1  0
  2 22  1  0
 22 23  1  0
 23 24  1  0
 24 25  1  0
 25 26  1  0
 26 27  1  0
 27 28  1  0
 28 29  2  0
 29 30  1  0
 30 31  1  0
 31 32  1  0
 31 33  1  0
 29 34  1  0
 28 35  1  0
 25 36  1  0
 25 37  1  0
 24 38  1  0
 24 39  1  0
 23 40  1  0
 23 41  1  0
 13  4  1  0
 31 22  1  0
 13  8  1  0
 30 26  2  0
M  END
>  <cnnaffinities>  (70) 
[5.53065, 5.04915]

>  <score>  (70) 
5.53065

>  <index>  (70) 
72

>  <Smiles>  (70) 
O=C(C(c1c(nc(c2c(c(c(c(c12)[H])[H])[H])[H])[H])[H])([H])[H])N1C(C(C(c2sc(c(c2C1([H])[H])[H])[H])([H])[H])([H])[H])([H])[H]

>  <h>  (70) 
<NA>

>  <Training>  (70) 
True

>  <Success>  (70) 
True

>  <enamine_searched>  (70) 
False

>  <enamine_id>  (70) 
nan

$$$$

     RDKit          3D

 50 53  0  0  0  0  0  0  0  0999 V2000
   -5.5987   -3.0186  -21.5806 O   0  0  0  0  0  0  0  0  0  0  0  0
   -6.7564   -2.7510  -21.8610 C   0  0  0  0  0  0  0  0  0  0  0  0
   -7.4155   -1.4785  -21.2670 C   0  0  0  0  0  0  0  0  0  0  0  0
   -6.5810   -0.8313  -20.1834 C   0  0  0  0  0  0  0  0  0  0  0  0
   -6.8742   -1.0438  -18.8596 C   0  0  0  0  0  0  0  0  0  0  0  0
   -6.1934   -0.5390  -17.7964 N   0  0  0  0  0  0  0  0  0  0  0  0
   -5.1579    0.2204  -18.0636 C   0  0  0  0  0  0  0  0  0  0  0  0
   -4.7212    0.5287  -19.3826 C   0  0  0  0  0  0  0  0  0  0  0  0
   -3.5918    1.3570  -19.6200 C   0  0  0  0  0  0  0  0  0  0  0  0
   -3.1888    1.6321  -20.9008 C   0  0  0  0  0  0  0  0  0  0  0  0
   -3.8995    1.0869  -21.9923 C   0  0  0  0  0  0  0  0  0  0  0  0
   -4.9985    0.2860  -21.7869 C   0  0  0  0  0  0  0  0  0  0  0  0
   -5.4442   -0.0131  -20.4723 C   0  0  0  0  0  0  0  0  0  0  0  0
   -5.5275   -0.1280  -22.6372 H   0  0  0  0  0  0  0  0  0  0  0  0
   -3.5765    1.3123  -23.0037 H   0  0  0  0  0  0  0  0  0  0  0  0
   -2.3287    2.2700  -21.0877 H   0  0  0  0  0  0  0  0  0  0  0  0
   -3.0517    1.7706  -18.7720 H   0  0  0  0  0  0  0  0  0  0  0  0
   -4.6019    0.6258  -17.2171 H   0  0  0  0  0  0  0  0  0  0  0  0
   -7.7199   -1.6693  -18.5852 H   0  0  0  0  0  0  0  0  0  0  0  0
   -7.6146   -0.7473  -22.0634 H   0  0  0  0  0  0  0  0  0  0  0  0
   -8.3959   -1.7459  -20.8472 H   0  0  0  0  0  0  0  0  0  0  0  0
   -7.5165   -3.5801  -22.6617 N   0  0  0  0  0  0  0  0  0  0  0  0
   -8.6622   -3.1215  -23.4516 C   0  0  0  0  0  0  0  0  0  0  0  0
   -9.7301   -4.1959  -23.5653 C   0  0  0  0  0  0  0  0  0  0  0  0
   -9.1366   -5.4800  -24.1140 C   0  0  0  0  0  0  0  0  0  0  0  0
   -7.9692   -5.9287  -23.2498 C   0  0  0  0  0  0  0  0  0  0  0  0
   -6.9025   -4.8483  -23.1053 C   0  0  1  0  0  0  0  0  0  0  0  0
   -6.0399   -4.6953  -24.3726 C   0  0  0  0  0  0  0  0  0  0  0  0
   -5.2071   -5.9199  -24.6888 C   0  0  0  0  0  0  0  0  0  0  0  0
   -4.0477   -6.1880  -23.9572 C   0  0  0  0  0  0  0  0  0  0  0  0
   -3.2847   -7.3204  -24.2193 C   0  0  0  0  0  0  0  0  0  0  0  0
   -3.6714   -8.2105  -25.2170 C   0  0  0  0  0  0  0  0  0  0  0  0
   -4.8266   -7.9600  -25.9503 C   0  0  0  0  0  0  0  0  0  0  0  0
   -5.5863   -6.8240  -25.6832 C   0  0  0  0  0  0  0  0  0  0  0  0
   -6.4941   -6.6402  -26.2542 H   0  0  0  0  0  0  0  0  0  0  0  0
   -5.1397   -8.6452  -26.7325 H   0  0  0  0  0  0  0  0  0  0  0  0
   -3.0715   -9.0907  -25.4255 H   0  0  0  0  0  0  0  0  0  0  0  0
   -2.3822   -7.5077  -23.6443 H   0  0  0  0  0  0  0  0  0  0  0  0
   -3.7378   -5.4988  -23.1742 H   0  0  0  0  0  0  0  0  0  0  0  0
   -6.6846   -4.4572  -25.2252 H   0  0  0  0  0  0  0  0  0  0  0  0
   -5.3819   -3.8376  -24.2184 H   0  0  0  0  0  0  0  0  0  0  0  0
   -6.2370   -5.1572  -22.2992 H   0  0  0  0  0  0  0  0  0  0  0  0
   -8.2996   -6.1645  -22.2382 H   0  0  0  0  0  0  0  0  0  0  0  0
   -7.5395   -6.8564  -23.6414 H   0  0  0  0  0  0  0  0  0  0  0  0
   -9.8900   -6.2533  -24.1945 H   0  0  0  0  0  0  0  0  0  0  0  0
   -8.8201   -5.3572  -25.1551 H   0  0  0  0  0  0  0  0  0  0  0  0
  -10.1648   -4.3768  -22.5787 H   0  0  0  0  0  0  0  0  0  0  0  0
  -10.5508   -3.8511  -24.2006 H   0  0  0  0  0  0  0  0  0  0  0  0
   -9.0879   -2.2305  -22.9935 H   0  0  0  0  0  0  0  0  0  0  0  0
   -8.3562   -2.8285  -24.4670 H   0  0  0  0  0  0  0  0  0  0  0  0
  1  2  2  0
  2  3  1  0
  3  4  1  0
  4  5  2  0
  5  6  1  0
  6  7  2  0
  7  8  1  0
  8  9  2  0
  9 10  1  0
 10 11  2  0
 11 12  1  0
 12 13  2  0
 12 14  1  0
 11 15  1  0
 10 16  1  0
  9 17  1  0
  7 18  1  0
  5 19  1  0
  3 20  1  0
  3 21  1  0
  2 22  1  0
 22 23  1  0
 23 24  1  0
 24 25  1  0
 25 26  1  0
 26 27  1  0
 27 28  1  0
 28 29  1  0
 29 30  2  0
 30 31  1  0
 31 32  2  0
 32 33  1  0
 33 34  2  0
 34 35  1  0
 33 36  1  0
 32 37  1  0
 31 38  1  0
 30 39  1  0
 28 40  1  0
 28 41  1  0
 27 42  1  1
 26 43  1  0
 26 44  1  0
 25 45  1  0
 25 46  1  0
 24 47  1  0
 24 48  1  0
 23 49  1  0
 23 50  1  0
 13  4  1  0
 27 22  1  0
 34 29  1  0
 13  8  1  0
M  END
>  <cnnaffinities>  (71) 
[5.45551]

>  <score>  (71) 
5.45551

>  <index>  (71) 
73

>  <Smiles>  (71) 
O=C(C(c1c(nc(c2c(c(c(c(c12)[H])[H])[H])[H])[H])[H])([H])[H])N1C(C(C(C([C@]1(C(c1c(c(c(c(c1[H])[H])[H])[H])[H])([H])[H])[H])([H])[H])([H])[H])([H])[H])([H])[H]

>  <h>  (71) 
<NA>

>  <Training>  (71) 
True

>  <Success>  (71) 
True

>  <enamine_searched>  (71) 
False

>  <enamine_id>  (71) 
nan

$$$$

     RDKit          3D

 43 47  0  0  0  0  0  0  0  0999 V2000
   -9.4284   -0.4567  -20.9845 O   0  0  0  0  0  0  0  0  0  0  0  0
   -8.7450   -1.3667  -21.3782 C   0  0  0  0  0  0  0  0  0  0  0  0
   -9.1358   -2.4531  -22.1142 N   0  0  0  0  0  0  0  0  0  0  0  0
   -8.0381   -3.1454  -22.7421 C   0  0  1  0  0  0  0  0  0  0  0  0
   -8.1023   -4.6874  -22.7167 C   0  0  0  0  0  0  0  0  0  0  0  0
   -8.2238   -4.7223  -24.2746 C   0  0  2  0  0  0  0  0  0  0  0  0
   -7.1765   -5.5226  -24.9863 C   0  0  0  0  0  0  0  0  0  0  0  0
   -5.8203   -5.2782  -24.7407 C   0  0  0  0  0  0  0  0  0  0  0  0
   -4.8306   -6.0107  -25.3849 C   0  0  0  0  0  0  0  0  0  0  0  0
   -5.1807   -7.0122  -26.2895 C   0  0  0  0  0  0  0  0  0  0  0  0
   -6.5205   -7.2767  -26.5442 C   0  0  0  0  0  0  0  0  0  0  0  0
   -7.4982   -6.5342  -25.8924 C   0  0  0  0  0  0  0  0  0  0  0  0
   -9.1683   -6.9177  -26.2439 Cl  0  0  0  0  0  0  0  0  0  0  0  0
   -6.8262   -8.0523  -27.2416 H   0  0  0  0  0  0  0  0  0  0  0  0
   -4.4106   -7.5866  -26.7971 H   0  0  0  0  0  0  0  0  0  0  0  0
   -3.7856   -5.7970  -25.1790 H   0  0  0  0  0  0  0  0  0  0  0  0
   -5.5486   -4.4983  -24.0267 H   0  0  0  0  0  0  0  0  0  0  0  0
   -8.0352   -3.1701  -24.2993 C   0  0  0  0  0  0  0  0  0  0  0  0
   -8.8575   -2.6038  -24.7515 H   0  0  0  0  0  0  0  0  0  0  0  0
   -7.0984   -2.8271  -24.7570 H   0  0  0  0  0  0  0  0  0  0  0  0
   -9.2255   -5.0181  -24.6002 H   0  0  0  0  0  0  0  0  0  0  0  0
   -8.9666   -5.0563  -22.1596 H   0  0  0  0  0  0  0  0  0  0  0  0
   -7.1923   -5.1492  -22.3154 H   0  0  0  0  0  0  0  0  0  0  0  0
   -6.8397   -2.5133  -22.0539 C   0  0  0  0  0  0  0  0  0  0  0  0
   -5.6774   -2.8002  -22.2311 O   0  0  0  0  0  0  0  0  0  0  0  0
   -7.3409   -1.5183  -21.2039 N   0  0  0  0  0  0  0  0  0  0  0  0
   -6.5846   -0.8591  -20.1860 C   0  0  0  0  0  0  0  0  0  0  0  0
   -6.9115   -1.0576  -18.8665 C   0  0  0  0  0  0  0  0  0  0  0  0
   -6.2193   -0.5401  -17.8224 N   0  0  0  0  0  0  0  0  0  0  0  0
   -5.1783    0.2049  -18.0956 C   0  0  0  0  0  0  0  0  0  0  0  0
   -4.7440    0.5210  -19.4104 C   0  0  0  0  0  0  0  0  0  0  0  0
   -3.6139    1.3533  -19.6374 C   0  0  0  0  0  0  0  0  0  0  0  0
   -3.2256    1.6573  -20.9114 C   0  0  0  0  0  0  0  0  0  0  0  0
   -3.9559    1.1431  -22.0067 C   0  0  0  0  0  0  0  0  0  0  0  0
   -5.0496    0.3357  -21.8127 C   0  0  0  0  0  0  0  0  0  0  0  0
   -5.4687   -0.0135  -20.4985 C   0  0  0  0  0  0  0  0  0  0  0  0
   -5.6023   -0.0451  -22.6653 H   0  0  0  0  0  0  0  0  0  0  0  0
   -3.6495    1.3994  -23.0152 H   0  0  0  0  0  0  0  0  0  0  0  0
   -2.3701    2.3047  -21.0922 H   0  0  0  0  0  0  0  0  0  0  0  0
   -3.0770    1.7480  -18.7802 H   0  0  0  0  0  0  0  0  0  0  0  0
   -4.6259    0.6056  -17.2467 H   0  0  0  0  0  0  0  0  0  0  0  0
   -7.7578   -1.6840  -18.5969 H   0  0  0  0  0  0  0  0  0  0  0  0
  -10.1001   -2.6044  -22.3662 H   0  0  0  0  0  0  0  0  0  0  0  0
  1  2  2  0
  2  3  1  0
  4  3  1  6
  4  5  1  0
  5  6  1  0
  6  7  1  0
  7  8  2  0
  8  9  1  0
  9 10  2  0
 10 11  1  0
 11 12  2  0
 12 13  1  0
 11 14  1  0
 10 15  1  0
  9 16  1  0
  8 17  1  0
  6 18  1  0
 18 19  1  0
 18 20  1  0
  6 21  1  1
  5 22  1  0
  5 23  1  0
  4 24  1  0
 24 25  2  0
 24 26  1  0
 26 27  1  0
 27 28  2  0
 28 29  1  0
 29 30  2  0
 30 31  1  0
 31 32  2  0
 32 33  1  0
 33 34  2  0
 34 35  1  0
 35 36  2  0
 35 37  1  0
 34 38  1  0
 33 39  1  0
 32 40  1  0
 30 41  1  0
 28 42  1  0
  3 43  1  0
 26  2  1  0
 36 27  1  0
 18  4  1  0
 36 31  1  0
 12  7  1  0
M  END
>  <cnnaffinities>  (72) 
[5.61605]

>  <score>  (72) 
5.61605

>  <index>  (72) 
74

>  <Smiles>  (72) 
O=C1N([C@]2(C([C@](c3c(c(c(c(c3Cl)[H])[H])[H])[H])(C2([H])[H])[H])([H])[H])C(=O)N1c1c(nc(c2c(c(c(c(c12)[H])[H])[H])[H])[H])[H])[H]

>  <h>  (72) 
<NA>

>  <Training>  (72) 
True

>  <Success>  (72) 
True

>  <enamine_searched>  (72) 
False

>  <enamine_id>  (72) 
nan

$$$$

     RDKit          3D

 66 71  0  0  0  0  0  0  0  0999 V2000
   -7.7592    3.0436  -22.2392 C   0  0  0  0  0  0  0  0  0  0  0  0
   -8.7928    2.5817  -23.1294 N   0  0  0  0  0  0  0  0  0  0  0  0
   -8.4085    1.9003  -24.2324 C   0  0  0  0  0  0  0  0  0  0  0  0
   -7.2331    1.7489  -24.5372 O   0  0  0  0  0  0  0  0  0  0  0  0
   -9.5385    1.2617  -25.0315 C   0  0  0  0  0  0  0  0  0  0  0  0
  -10.0676    0.1122  -24.3197 N   0  0  0  0  0  0  0  0  0  0  0  0
   -9.1558   -0.9979  -24.1085 C   0  0  0  0  0  0  0  0  0  0  0  0
   -9.3700   -1.7385  -22.7527 C   0  0  2  0  0  0  0  0  0  0  0  0
   -8.7950   -0.8474  -21.6134 C   0  0  0  0  0  0  0  0  0  0  0  0
   -9.3311    0.1324  -21.1281 O   0  0  0  0  0  0  0  0  0  0  0  0
   -7.5491   -1.3217  -21.2620 N   0  0  0  0  0  0  0  0  0  0  0  0
   -6.7544   -0.7612  -20.2265 C   0  0  0  0  0  0  0  0  0  0  0  0
   -7.0511   -1.0288  -18.9131 C   0  0  0  0  0  0  0  0  0  0  0  0
   -6.3217   -0.5892  -17.8564 N   0  0  0  0  0  0  0  0  0  0  0  0
   -5.2565    0.1299  -18.1152 C   0  0  0  0  0  0  0  0  0  0  0  0
   -4.8199    0.4735  -19.4272 C   0  0  0  0  0  0  0  0  0  0  0  0
   -3.6612    1.2664  -19.6563 C   0  0  0  0  0  0  0  0  0  0  0  0
   -3.2842    1.5918  -20.9308 C   0  0  0  0  0  0  0  0  0  0  0  0
   -4.0458    1.1472  -22.0345 C   0  0  0  0  0  0  0  0  0  0  0  0
   -5.1730    0.3817  -21.8366 C   0  0  0  0  0  0  0  0  0  0  0  0
   -5.5878    0.0160  -20.5258 C   0  0  0  0  0  0  0  0  0  0  0  0
   -5.7887    0.1148  -22.6910 H   0  0  0  0  0  0  0  0  0  0  0  0
   -3.7567    1.4284  -23.0434 H   0  0  0  0  0  0  0  0  0  0  0  0
   -2.4108    2.2144  -21.1057 H   0  0  0  0  0  0  0  0  0  0  0  0
   -3.0957    1.6242  -18.7990 H   0  0  0  0  0  0  0  0  0  0  0  0
   -4.6775    0.4874  -17.2620 H   0  0  0  0  0  0  0  0  0  0  0  0
   -7.9147   -1.6451  -18.6724 H   0  0  0  0  0  0  0  0  0  0  0  0
   -7.1241   -2.4738  -22.0312 C   0  0  0  0  0  0  0  0  0  0  0  0
   -8.4408   -2.9888  -22.6365 C   0  0  2  0  0  0  0  0  0  0  0  0
   -8.2021   -3.7769  -23.9193 C   0  0  0  0  0  0  0  0  0  0  0  0
   -9.4522   -4.2736  -24.4333 N   0  0  0  0  0  0  0  0  0  0  0  0
   -9.5676   -4.9230  -25.6275 C   0  0  0  0  0  0  0  0  0  0  0  0
   -8.4271   -5.1806  -26.4256 C   0  0  0  0  0  0  0  0  0  0  0  0
   -8.5033   -5.8009  -27.5887 N   0  0  0  0  0  0  0  0  0  0  0  0
   -9.7233   -6.1949  -27.9722 C   0  0  0  0  0  0  0  0  0  0  0  0
  -10.8386   -5.9534  -27.1848 C   0  0  0  0  0  0  0  0  0  0  0  0
  -10.7824   -5.3102  -26.0155 N   0  0  0  0  0  0  0  0  0  0  0  0
  -11.8210   -6.2898  -27.5050 H   0  0  0  0  0  0  0  0  0  0  0  0
   -9.8003   -6.7099  -28.9250 H   0  0  0  0  0  0  0  0  0  0  0  0
   -7.4448   -4.8591  -26.0890 H   0  0  0  0  0  0  0  0  0  0  0  0
  -10.3228   -3.9835  -24.0079 H   0  0  0  0  0  0  0  0  0  0  0  0
   -7.5187   -4.6171  -23.7408 H   0  0  0  0  0  0  0  0  0  0  0  0
   -7.6872   -3.1311  -24.6525 H   0  0  0  0  0  0  0  0  0  0  0  0
   -8.8962   -3.6608  -21.9013 H   0  0  0  0  0  0  0  0  0  0  0  0
   -6.3911   -2.1975  -22.8095 H   0  0  0  0  0  0  0  0  0  0  0  0
   -6.6374   -3.2105  -21.3822 H   0  0  0  0  0  0  0  0  0  0  0  0
  -10.8676   -1.9660  -22.5581 C   0  0  0  0  0  0  0  0  0  0  0  0
  -11.4058   -3.0448  -21.8375 C   0  0  0  0  0  0  0  0  0  0  0  0
  -12.7575   -3.0594  -21.5079 C   0  0  0  0  0  0  0  0  0  0  0  0
  -13.4336   -4.3067  -20.5035 Cl  0  0  0  0  0  0  0  0  0  0  0  0
  -13.6374   -2.0685  -21.9348 C   0  0  0  0  0  0  0  0  0  0  0  0
  -13.1251   -1.0213  -22.6636 C   0  0  0  0  0  0  0  0  0  0  0  0
  -11.7706   -0.9770  -22.9875 C   0  0  0  0  0  0  0  0  0  0  0  0
  -11.3276    0.1880  -23.8111 C   0  0  0  0  0  0  0  0  0  0  0  0
  -12.0595    1.1507  -24.0103 O   0  0  0  0  0  0  0  0  0  0  0  0
  -13.7588   -0.2046  -22.9880 H   0  0  0  0  0  0  0  0  0  0  0  0
  -14.6968   -2.1460  -21.7065 H   0  0  0  0  0  0  0  0  0  0  0  0
  -10.7886   -3.8799  -21.5218 H   0  0  0  0  0  0  0  0  0  0  0  0
   -8.1570   -0.5594  -24.1124 H   0  0  0  0  0  0  0  0  0  0  0  0
   -9.2132   -1.6873  -24.9614 H   0  0  0  0  0  0  0  0  0  0  0  0
  -10.3762    1.9500  -25.1434 H   0  0  0  0  0  0  0  0  0  0  0  0
   -9.1357    0.9800  -26.0105 H   0  0  0  0  0  0  0  0  0  0  0  0
   -9.7025    2.3897  -22.7460 H   0  0  0  0  0  0  0  0  0  0  0  0
   -8.1844    3.4825  -21.3399 H   0  0  0  0  0  0  0  0  0  0  0  0
   -7.1200    2.2081  -21.9405 H   0  0  0  0  0  0  0  0  0  0  0  0
   -7.1338    3.7848  -22.7446 H   0  0  0  0  0  0  0  0  0  0  0  0
  1  2  1  0
  2  3  1  0
  3  4  2  0
  3  5  1  0
  5  6  1  0
  6  7  1  0
  8  7  1  6
  8  9  1  0
  9 10  2  0
  9 11  1  0
 11 12  1  0
 12 13  2  0
 13 14  1  0
 14 15  2  0
 15 16  1  0
 16 17  2  0
 17 18  1  0
 18 19  2  0
 19 20  1  0
 20 21  2  0
 20 22  1  0
 19 23  1  0
 18 24  1  0
 17 25  1  0
 15 26  1  0
 13 27  1  0
 11 28  1  0
 28 29  1  0
 29 30  1  0
 30 31  1  0
 31 32  1  0
 32 33  2  0
 33 34  1  0
 34 35  2  0
 35 36  1  0
 36 37  2  0
 36 38  1  0
 35 39  1  0
 33 40  1  0
 31 41  1  0
 30 42  1  0
 30 43  1  0
 29 44  1  1
 28 45  1  0
 28 46  1  0
  8 47  1  0
 47 48  2  0
 48 49  1  0
 49 50  1  0
 49 51  2  0
 51 52  1  0
 52 53  2  0
 53 54  1  0
 54 55  2  0
 52 56  1  0
 51 57  1  0
 48 58  1  0
  7 59  1  0
  7 60  1  0
  5 61  1  0
  5 62  1  0
  2 63  1  0
  1 64  1  0
  1 65  1  0
  1 66  1  0
 54  6  1  0
 29  8  1  0
 37 32  1  0
 53 47  1  0
 21 12  1  0
 21 16  1  0
M  END
>  <cnnaffinities>  (73) 
[6.55101]

>  <score>  (73) 
6.55101

>  <index>  (73) 
75

>  <Smiles>  (73) 
C(N(C(=O)C(N1C([C@@]2(C(=O)N(c3c(nc(c4c(c(c(c(c34)[H])[H])[H])[H])[H])[H])C([C@@]2(C(N(c2c(nc(c(n2)[H])[H])[H])[H])([H])[H])[H])([H])[H])c2c(c(Cl)c(c(c2C1=O)[H])[H])[H])([H])[H])([H])[H])[H])([H])([H])[H]

>  <h>  (73) 
<NA>

>  <Training>  (73) 
True

>  <Success>  (73) 
True

>  <enamine_searched>  (73) 
False

>  <enamine_id>  (73) 
nan

$$$$

     RDKit          3D

 66 71  0  0  0  0  0  0  0  0999 V2000
   -8.0376   -3.5929  -23.9969 C   0  0  0  0  0  0  0  0  0  0  0  0
   -8.3886   -2.7645  -22.7645 C   0  0  1  0  0  0  0  0  0  0  0  0
   -7.1880   -2.5924  -21.8230 C   0  0  0  0  0  0  0  0  0  0  0  0
   -7.4564   -1.3290  -21.1720 N   0  0  0  0  0  0  0  0  0  0  0  0
   -6.6251   -0.7915  -20.1617 C   0  0  0  0  0  0  0  0  0  0  0  0
   -6.9268   -1.0363  -18.8498 C   0  0  0  0  0  0  0  0  0  0  0  0
   -6.2230   -0.5558  -17.7969 N   0  0  0  0  0  0  0  0  0  0  0  0
   -5.1810    0.1922  -18.0749 C   0  0  0  0  0  0  0  0  0  0  0  0
   -4.7556    0.5184  -19.3953 C   0  0  0  0  0  0  0  0  0  0  0  0
   -3.6308    1.3504  -19.6304 C   0  0  0  0  0  0  0  0  0  0  0  0
   -3.2378    1.6377  -20.9093 C   0  0  0  0  0  0  0  0  0  0  0  0
   -3.9412    1.1008  -22.0103 C   0  0  0  0  0  0  0  0  0  0  0  0
   -5.0390    0.2989  -21.8107 C   0  0  0  0  0  0  0  0  0  0  0  0
   -5.4841    0.0020  -20.4871 C   0  0  0  0  0  0  0  0  0  0  0  0
   -5.5773   -0.0936  -22.6702 H   0  0  0  0  0  0  0  0  0  0  0  0
   -3.6143    1.3350  -23.0192 H   0  0  0  0  0  0  0  0  0  0  0  0
   -2.3810    2.2799  -21.0863 H   0  0  0  0  0  0  0  0  0  0  0  0
   -3.0957    1.7453  -18.7735 H   0  0  0  0  0  0  0  0  0  0  0  0
   -4.6164    0.5884  -17.2321 H   0  0  0  0  0  0  0  0  0  0  0  0
   -7.7944   -1.6503  -18.6167 H   0  0  0  0  0  0  0  0  0  0  0  0
   -8.3667   -0.5343  -21.8250 C   0  0  0  0  0  0  0  0  0  0  0  0
   -8.6411    0.6047  -21.4864 O   0  0  0  0  0  0  0  0  0  0  0  0
   -8.9362   -1.3234  -23.0242 C   0  0  1  0  0  0  0  0  0  0  0  0
   -8.3747   -0.7603  -24.3604 C   0  0  0  0  0  0  0  0  0  0  0  0
   -8.9752    0.4970  -24.7600 N   0  0  0  0  0  0  0  0  0  0  0  0
   -8.1365    1.5236  -25.3584 C   0  0  0  0  0  0  0  0  0  0  0  0
   -7.5414    2.3965  -24.2762 C   0  0  0  0  0  0  0  0  0  0  0  0
   -8.5488    3.2677  -23.6068 N   0  0  0  0  0  4  0  0  0  0  0  0
   -9.1530    4.3285  -24.4925 C   0  0  0  0  0  0  0  0  0  0  0  0
   -9.5217    5.5185  -23.6372 C   0  0  0  0  0  0  0  0  0  0  0  0
   -8.3690    6.1822  -23.1535 O   0  0  0  0  0  0  0  0  0  0  0  0
   -7.3571    5.2831  -22.7126 C   0  0  0  0  0  0  0  0  0  0  0  0
   -7.9071    3.8980  -22.4008 C   0  0  0  0  0  0  0  0  0  0  0  0
   -7.1416    3.1910  -22.0807 H   0  0  0  0  0  0  0  0  0  0  0  0
   -8.6315    3.9938  -21.5987 H   0  0  0  0  0  0  0  0  0  0  0  0
   -6.9215    5.7290  -21.8155 H   0  0  0  0  0  0  0  0  0  0  0  0
   -6.5694    5.2164  -23.4742 H   0  0  0  0  0  0  0  0  0  0  0  0
  -10.1043    6.2398  -24.2044 H   0  0  0  0  0  0  0  0  0  0  0  0
  -10.1459    5.1735  -22.8023 H   0  0  0  0  0  0  0  0  0  0  0  0
  -10.0085    3.8910  -25.0046 H   0  0  0  0  0  0  0  0  0  0  0  0
   -8.4075    4.6380  -25.2263 H   0  0  0  0  0  0  0  0  0  0  0  0
   -9.3238    2.6957  -23.2422 H   0  0  0  0  0  0  0  0  0  0  0  0
   -7.1230    1.7476  -23.5019 H   0  0  0  0  0  0  0  0  0  0  0  0
   -6.7247    3.0165  -24.6584 H   0  0  0  0  0  0  0  0  0  0  0  0
   -8.7431    2.1078  -26.0514 H   0  0  0  0  0  0  0  0  0  0  0  0
   -7.3329    1.0486  -25.9269 H   0  0  0  0  0  0  0  0  0  0  0  0
  -10.2990    0.7510  -24.6089 C   0  0  0  0  0  0  0  0  0  0  0  0
  -10.8287    1.7715  -25.0450 O   0  0  0  0  0  0  0  0  0  0  0  0
  -11.0882   -0.2424  -23.8203 C   0  0  0  0  0  0  0  0  0  0  0  0
  -12.4781   -0.1253  -23.8266 C   0  0  0  0  0  0  0  0  0  0  0  0
  -13.2562   -0.9248  -23.0130 C   0  0  0  0  0  0  0  0  0  0  0  0
  -12.6123   -1.8326  -22.1698 C   0  0  0  0  0  0  0  0  0  0  0  0
  -13.5573   -2.8251  -21.0957 Cl  0  0  0  0  0  0  0  0  0  0  0  0
  -11.2357   -1.9631  -22.1605 C   0  0  0  0  0  0  0  0  0  0  0  0
  -10.4477   -1.2049  -23.0333 C   0  0  0  0  0  0  0  0  0  0  0  0
  -10.7898   -2.6466  -21.4458 H   0  0  0  0  0  0  0  0  0  0  0  0
  -14.3378   -0.8286  -23.0053 H   0  0  0  0  0  0  0  0  0  0  0  0
  -12.9269    0.6186  -24.4751 H   0  0  0  0  0  0  0  0  0  0  0  0
   -7.2909   -0.6208  -24.2633 H   0  0  0  0  0  0  0  0  0  0  0  0
   -8.5475   -1.4987  -25.1525 H   0  0  0  0  0  0  0  0  0  0  0  0
   -7.1128   -3.4029  -21.0913 H   0  0  0  0  0  0  0  0  0  0  0  0
   -6.2386   -2.5737  -22.3830 H   0  0  0  0  0  0  0  0  0  0  0  0
   -9.1552   -3.3112  -22.2106 H   0  0  0  0  0  0  0  0  0  0  0  0
   -7.7269   -4.5994  -23.6985 H   0  0  0  0  0  0  0  0  0  0  0  0
   -8.8957   -3.6815  -24.6728 H   0  0  0  0  0  0  0  0  0  0  0  0
   -7.2078   -3.1400  -24.5546 H   0  0  0  0  0  0  0  0  0  0  0  0
  1  2  1  0
  2  3  1  0
  3  4  1  0
  4  5  1  0
  5  6  2  0
  6  7  1  0
  7  8  2  0
  8  9  1  0
  9 10  2  0
 10 11  1  0
 11 12  2  0
 12 13  1  0
 13 14  2  0
 13 15  1  0
 12 16  1  0
 11 17  1  0
 10 18  1  0
  8 19  1  0
  6 20  1  0
  4 21  1  0
 21 22  2  0
 21 23  1  0
 23 24  1  6
 24 25  1  0
 25 26  1  0
 26 27  1  0
 27 28  1  0
 28 29  1  0
 29 30  1  0
 30 31  1  0
 31 32  1  0
 32 33  1  0
 33 34  1  0
 33 35  1  0
 32 36  1  0
 32 37  1  0
 30 38  1  0
 30 39  1  0
 29 40  1  0
 29 41  1  0
 28 42  1  0
 27 43  1  0
 27 44  1  0
 26 45  1  0
 26 46  1  0
 25 47  1  0
 47 48  2  0
 47 49  1  0
 49 50  2  0
 50 51  1  0
 51 52  2  0
 52 53  1  0
 52 54  1  0
 54 55  2  0
 54 56  1  0
 51 57  1  0
 50 58  1  0
 24 59  1  0
 24 60  1  0
  3 61  1  0
  3 62  1  0
  2 63  1  1
  1 64  1  0
  1 65  1  0
  1 66  1  0
 23  2  1  0
 33 28  1  0
 55 49  1  0
 14  5  1  0
 55 23  1  0
 14  9  1  0
M  CHG  1  28   1
M  END
>  <cnnaffinities>  (74) 
[6.5729]

>  <score>  (74) 
6.5729

>  <index>  (74) 
76

>  <Smiles>  (74) 
C([C@]1(C(N(c2c(nc(c3c(c(c(c(c23)[H])[H])[H])[H])[H])[H])C(=O)[C@]21C(N(C(C([N+]1(C(C(OC(C1([H])[H])([H])[H])([H])[H])([H])[H])[H])([H])[H])([H])[H])C(=O)c1c(c(c(Cl)c(c21)[H])[H])[H])([H])[H])([H])[H])[H])([H])([H])[H]

>  <h>  (74) 
<NA>

>  <Training>  (74) 
True

>  <Success>  (74) 
True

>  <enamine_searched>  (74) 
False

>  <enamine_id>  (74) 
nan

$$$$

     RDKit          3D

 55 60  0  0  0  0  0  0  0  0999 V2000
  -10.4666   -1.0990  -23.2921 C   0  0  0  0  0  0  0  0  0  0  0  0
   -9.0241   -1.4490  -22.9390 C   0  0  1  0  0  0  0  0  0  0  0  0
   -8.4045   -0.5029  -21.8981 C   0  0  0  0  0  0  0  0  0  0  0  0
   -7.4151   -1.3342  -21.2307 N   0  0  0  0  0  0  0  0  0  0  0  0
   -6.5933   -0.8481  -20.1857 C   0  0  0  0  0  0  0  0  0  0  0  0
   -6.9074   -1.0945  -18.8729 C   0  0  0  0  0  0  0  0  0  0  0  0
   -6.2351   -0.5688  -17.8173 N   0  0  0  0  0  0  0  0  0  0  0  0
   -5.2059    0.1987  -18.0816 C   0  0  0  0  0  0  0  0  0  0  0  0
   -4.7524    0.5100  -19.3954 C   0  0  0  0  0  0  0  0  0  0  0  0
   -3.6173    1.3299  -19.6294 C   0  0  0  0  0  0  0  0  0  0  0  0
   -3.2198    1.6042  -20.9092 C   0  0  0  0  0  0  0  0  0  0  0  0
   -3.9287    1.0702  -22.0096 C   0  0  0  0  0  0  0  0  0  0  0  0
   -5.0273    0.2704  -21.8086 C   0  0  0  0  0  0  0  0  0  0  0  0
   -5.4671   -0.0223  -20.4901 C   0  0  0  0  0  0  0  0  0  0  0  0
   -5.5666   -0.1479  -22.6523 H   0  0  0  0  0  0  0  0  0  0  0  0
   -3.6038    1.2989  -23.0208 H   0  0  0  0  0  0  0  0  0  0  0  0
   -2.3587    2.2415  -21.0918 H   0  0  0  0  0  0  0  0  0  0  0  0
   -3.0795    1.7311  -18.7744 H   0  0  0  0  0  0  0  0  0  0  0  0
   -4.6659    0.6126  -17.2298 H   0  0  0  0  0  0  0  0  0  0  0  0
   -7.7531   -1.7311  -18.6230 H   0  0  0  0  0  0  0  0  0  0  0  0
   -7.6014   -2.6857  -21.4310 C   0  0  0  0  0  0  0  0  0  0  0  0
   -6.8767   -3.5492  -20.9811 O   0  0  0  0  0  0  0  0  0  0  0  0
   -8.8249   -2.8865  -22.3400 C   0  0  1  0  0  0  0  0  0  0  0  0
  -10.0303   -3.3305  -21.4764 C   0  0  0  0  0  0  0  0  0  0  0  0
  -11.1868   -3.7512  -22.2706 N   0  0  0  0  0  0  0  0  0  0  0  0
  -12.5344   -3.7215  -21.6846 C   0  0  0  0  0  0  0  0  0  0  0  0
  -13.4457   -2.6298  -22.1744 C   0  0  0  0  0  0  0  0  0  0  0  0
  -13.8774   -1.4251  -21.7211 C   0  0  0  0  0  0  0  0  0  0  0  0
  -14.7800   -0.9229  -22.6241 O   0  0  0  0  0  0  0  0  0  0  0  0
  -14.8423   -1.8612  -23.5797 C   0  0  0  0  0  0  0  0  0  0  0  0
  -14.1159   -2.8897  -23.3578 N   0  0  0  0  0  0  0  0  0  0  0  0
  -15.4500   -1.6983  -24.4552 H   0  0  0  0  0  0  0  0  0  0  0  0
  -13.7042   -0.7880  -20.8709 H   0  0  0  0  0  0  0  0  0  0  0  0
  -13.0408   -4.6161  -22.0494 H   0  0  0  0  0  0  0  0  0  0  0  0
  -12.4723   -3.7718  -20.5922 H   0  0  0  0  0  0  0  0  0  0  0  0
  -11.0069   -4.5506  -23.3778 C   0  0  0  0  0  0  0  0  0  0  0  0
  -11.9367   -5.0772  -23.9706 O   0  0  0  0  0  0  0  0  0  0  0  0
   -9.5960   -4.7410  -23.8525 C   0  0  0  0  0  0  0  0  0  0  0  0
   -9.3482   -5.6986  -24.8361 C   0  0  0  0  0  0  0  0  0  0  0  0
   -8.0762   -5.8607  -25.3573 C   0  0  0  0  0  0  0  0  0  0  0  0
   -7.0597   -5.0228  -24.9144 C   0  0  0  0  0  0  0  0  0  0  0  0
   -5.8289   -5.1541  -25.4382 F   0  0  0  0  0  0  0  0  0  0  0  0
   -7.2759   -4.0738  -23.9385 C   0  0  0  0  0  0  0  0  0  0  0  0
   -8.5554   -3.9381  -23.3838 C   0  0  0  0  0  0  0  0  0  0  0  0
   -6.4368   -3.4836  -23.5900 H   0  0  0  0  0  0  0  0  0  0  0  0
   -7.8579   -6.6219  -26.0953 H   0  0  0  0  0  0  0  0  0  0  0  0
  -10.1781   -6.3094  -25.1784 H   0  0  0  0  0  0  0  0  0  0  0  0
  -10.3009   -2.4639  -20.8628 H   0  0  0  0  0  0  0  0  0  0  0  0
   -9.7127   -4.1569  -20.8281 H   0  0  0  0  0  0  0  0  0  0  0  0
   -9.1600   -0.1308  -21.1871 H   0  0  0  0  0  0  0  0  0  0  0  0
   -7.9372    0.3733  -22.3589 H   0  0  0  0  0  0  0  0  0  0  0  0
   -8.4048   -1.4198  -23.8471 H   0  0  0  0  0  0  0  0  0  0  0  0
  -11.0735   -1.0676  -22.3810 H   0  0  0  0  0  0  0  0  0  0  0  0
  -10.8947   -1.8659  -23.9446 H   0  0  0  0  0  0  0  0  0  0  0  0
  -10.5483   -0.1291  -23.7882 H   0  0  0  0  0  0  0  0  0  0  0  0
  1  2  1  0
  2  3  1  0
  3  4  1  0
  4  5  1  0
  5  6  2  0
  6  7  1  0
  7  8  2  0
  8  9  1  0
  9 10  2  0
 10 11  1  0
 11 12  2  0
 12 13  1  0
 13 14  2  0
 13 15  1  0
 12 16  1  0
 11 17  1  0
 10 18  1  0
  8 19  1  0
  6 20  1  0
  4 21  1  0
 21 22  2  0
 21 23  1  0
 23 24  1  1
 24 25  1  0
 25 26  1  0
 26 27  1  0
 27 28  2  0
 28 29  1  0
 29 30  1  0
 30 31  2  0
 30 32  1  0
 28 33  1  0
 26 34  1  0
 26 35  1  0
 25 36  1  0
 36 37  2  0
 36 38  1  0
 38 39  2  0
 39 40  1  0
 40 41  2  0
 41 42  1  0
 41 43  1  0
 43 44  2  0
 43 45  1  0
 40 46  1  0
 39 47  1  0
 24 48  1  0
 24 49  1  0
  3 50  1  0
  3 51  1  0
  2 52  1  6
  1 53  1  0
  1 54  1  0
  1 55  1  0
 23  2  1  0
 31 27  1  0
 44 38  1  0
 14  5  1  0
 44 23  1  0
 14  9  1  0
M  END
>  <cnnaffinities>  (75) 
[6.40089]

>  <score>  (75) 
6.40089

>  <index>  (75) 
77

>  <Smiles>  (75) 
C([C@]1(C(N(c2c(nc(c3c(c(c(c(c23)[H])[H])[H])[H])[H])[H])C(=O)[C@]21C(N(C(c1c(oc(n1)[H])[H])([H])[H])C(=O)c1c(c(c(F)c(c21)[H])[H])[H])([H])[H])([H])[H])[H])([H])([H])[H]

>  <h>  (75) 
<NA>

>  <Training>  (75) 
True

>  <Success>  (75) 
True

>  <enamine_searched>  (75) 
False

>  <enamine_id>  (75) 
nan

$$$$

     RDKit          3D

 56 60  0  0  0  0  0  0  0  0999 V2000
  -14.6195   -0.5692  -22.6526 C   0  0  0  0  0  0  0  0  0  0  0  0
  -13.6614   -1.4505  -21.9984 N   0  0  0  0  0  0  0  0  0  0  0  0
  -13.5827   -2.7395  -22.4480 C   0  0  0  0  0  0  0  0  0  0  0  0
  -14.3559   -3.1225  -23.3151 O   0  0  0  0  0  0  0  0  0  0  0  0
  -12.5644   -3.7328  -21.8645 C   0  0  0  0  0  0  0  0  0  0  0  0
  -11.2026   -3.6970  -22.4248 N   0  0  0  0  0  0  0  0  0  0  0  0
  -10.0625   -3.2818  -21.6061 C   0  0  0  0  0  0  0  0  0  0  0  0
   -8.8255   -2.8207  -22.4279 C   0  0  2  0  0  0  0  0  0  0  0  0
   -7.6327   -2.6498  -21.4673 C   0  0  0  0  0  0  0  0  0  0  0  0
   -6.9415   -3.5284  -20.9917 O   0  0  0  0  0  0  0  0  0  0  0  0
   -7.4258   -1.3073  -21.2427 N   0  0  0  0  0  0  0  0  0  0  0  0
   -6.6059   -0.8485  -20.1850 C   0  0  0  0  0  0  0  0  0  0  0  0
   -6.9167   -1.1150  -18.8760 C   0  0  0  0  0  0  0  0  0  0  0  0
   -6.2455   -0.5949  -17.8163 N   0  0  0  0  0  0  0  0  0  0  0  0
   -5.2193    0.1814  -18.0700 C   0  0  0  0  0  0  0  0  0  0  0  0
   -4.7624    0.5014  -19.3820 C   0  0  0  0  0  0  0  0  0  0  0  0
   -3.6273    1.3219  -19.6194 C   0  0  0  0  0  0  0  0  0  0  0  0
   -3.2303    1.5984  -20.9001 C   0  0  0  0  0  0  0  0  0  0  0  0
   -3.9389    1.0653  -22.0013 C   0  0  0  0  0  0  0  0  0  0  0  0
   -5.0359    0.2651  -21.7968 C   0  0  0  0  0  0  0  0  0  0  0  0
   -5.4763   -0.0254  -20.4789 C   0  0  0  0  0  0  0  0  0  0  0  0
   -5.5767   -0.1572  -22.6368 H   0  0  0  0  0  0  0  0  0  0  0  0
   -3.6174    1.2983  -23.0131 H   0  0  0  0  0  0  0  0  0  0  0  0
   -2.3672    2.2341  -21.0838 H   0  0  0  0  0  0  0  0  0  0  0  0
   -3.0854    1.7219  -18.7666 H   0  0  0  0  0  0  0  0  0  0  0  0
   -4.6905    0.5985  -17.2116 H   0  0  0  0  0  0  0  0  0  0  0  0
   -7.7502   -1.7693  -18.6298 H   0  0  0  0  0  0  0  0  0  0  0  0
   -8.4096   -0.4581  -21.8875 C   0  0  0  0  0  0  0  0  0  0  0  0
   -8.9860   -1.3621  -22.9904 C   0  0  2  0  0  0  0  0  0  0  0  0
  -10.3955   -0.9647  -23.4089 C   0  0  0  0  0  0  0  0  0  0  0  0
  -10.4062    0.0163  -23.8909 H   0  0  0  0  0  0  0  0  0  0  0  0
  -10.8147   -1.7016  -24.0999 H   0  0  0  0  0  0  0  0  0  0  0  0
  -11.0585   -0.9106  -22.5409 H   0  0  0  0  0  0  0  0  0  0  0  0
   -8.3206   -1.3053  -23.8640 H   0  0  0  0  0  0  0  0  0  0  0  0
   -9.1864   -0.1445  -21.1702 H   0  0  0  0  0  0  0  0  0  0  0  0
   -7.9415    0.4520  -22.2766 H   0  0  0  0  0  0  0  0  0  0  0  0
   -8.5289   -3.8707  -23.4768 C   0  0  0  0  0  0  0  0  0  0  0  0
   -7.2406   -4.0498  -24.0020 C   0  0  0  0  0  0  0  0  0  0  0  0
   -7.0120   -5.0255  -24.9567 C   0  0  0  0  0  0  0  0  0  0  0  0
   -5.4150   -5.2329  -25.6060 Cl  0  0  0  0  0  0  0  0  0  0  0  0
   -8.0371   -5.8472  -25.4225 C   0  0  0  0  0  0  0  0  0  0  0  0
   -9.3125   -5.6491  -24.9303 C   0  0  0  0  0  0  0  0  0  0  0  0
   -9.5600   -4.6720  -23.9663 C   0  0  0  0  0  0  0  0  0  0  0  0
  -10.9766   -4.5192  -23.5077 C   0  0  0  0  0  0  0  0  0  0  0  0
  -11.8704   -5.1073  -24.0903 O   0  0  0  0  0  0  0  0  0  0  0  0
  -10.1544   -6.2326  -25.2911 H   0  0  0  0  0  0  0  0  0  0  0  0
   -7.8342   -6.6190  -26.1591 H   0  0  0  0  0  0  0  0  0  0  0  0
   -6.4080   -3.4516  -23.6499 H   0  0  0  0  0  0  0  0  0  0  0  0
   -9.7400   -4.0991  -20.9474 H   0  0  0  0  0  0  0  0  0  0  0  0
  -10.3929   -2.4441  -20.9932 H   0  0  0  0  0  0  0  0  0  0  0  0
  -12.5600   -3.7507  -20.7643 H   0  0  0  0  0  0  0  0  0  0  0  0
  -13.0140   -4.6564  -22.2279 H   0  0  0  0  0  0  0  0  0  0  0  0
  -13.3223   -1.1705  -21.0927 H   0  0  0  0  0  0  0  0  0  0  0  0
  -15.5922   -1.0486  -22.7599 H   0  0  0  0  0  0  0  0  0  0  0  0
  -14.7394    0.3493  -22.0861 H   0  0  0  0  0  0  0  0  0  0  0  0
  -14.2869   -0.2835  -23.6536 H   0  0  0  0  0  0  0  0  0  0  0  0
  1  2  1  0
  2  3  1  0
  3  4  2  0
  3  5  1  0
  5  6  1  0
  6  7  1  0
  8  7  1  1
  8  9  1  0
  9 10  2  0
  9 11  1  0
 11 12  1  0
 12 13  2  0
 13 14  1  0
 14 15  2  0
 15 16  1  0
 16 17  2  0
 17 18  1  0
 18 19  2  0
 19 20  1  0
 20 21  2  0
 20 22  1  0
 19 23  1  0
 18 24  1  0
 17 25  1  0
 15 26  1  0
 13 27  1  0
 11 28  1  0
 28 29  1  0
 29 30  1  0
 30 31  1  0
 30 32  1  0
 30 33  1  0
 29 34  1  6
 28 35  1  0
 28 36  1  0
  8 37  1  0
 37 38  2  0
 38 39  1  0
 39 40  1  0
 39 41  2  0
 41 42  1  0
 42 43  2  0
 43 44  1  0
 44 45  2  0
 42 46  1  0
 41 47  1  0
 38 48  1  0
  7 49  1  0
  7 50  1  0
  5 51  1  0
  5 52  1  0
  2 53  1  0
  1 54  1  0
  1 55  1  0
  1 56  1  0
 44  6  1  0
 29  8  1  0
 43 37  1  0
 21 12  1  0
 21 16  1  0
M  END
>  <cnnaffinities>  (76) 
[6.3878]

>  <score>  (76) 
6.3878

>  <index>  (76) 
78

>  <Smiles>  (76) 
C(N(C(=O)C(N1C([C@@]2(C(=O)N(c3c(nc(c4c(c(c(c(c34)[H])[H])[H])[H])[H])[H])C([C@@]2(C([H])([H])[H])[H])([H])[H])c2c(c(Cl)c(c(c2C1=O)[H])[H])[H])([H])[H])([H])[H])[H])([H])([H])[H]

>  <h>  (76) 
<NA>

>  <Training>  (76) 
True

>  <Success>  (76) 
True

>  <enamine_searched>  (76) 
False

>  <enamine_id>  (76) 
nan

$$$$

     RDKit          3D

 45 49  0  0  0  0  0  0  0  0999 V2000
  -10.5683   -2.7150  -22.4869 C   0  0  0  0  0  0  0  0  0  0  0  0
   -9.1733   -2.4529  -22.1703 N   0  0  0  0  0  0  0  0  0  0  0  0
   -8.7648   -1.3933  -21.3975 C   0  0  0  0  0  0  0  0  0  0  0  0
   -9.4445   -0.4791  -20.9939 O   0  0  0  0  0  0  0  0  0  0  0  0
   -7.3678   -1.5414  -21.2118 N   0  0  0  0  0  0  0  0  0  0  0  0
   -6.5992   -0.8683  -20.1990 C   0  0  0  0  0  0  0  0  0  0  0  0
   -6.9126   -1.0604  -18.8750 C   0  0  0  0  0  0  0  0  0  0  0  0
   -6.2191   -0.5413  -17.8277 N   0  0  0  0  0  0  0  0  0  0  0  0
   -5.1787    0.2050  -18.0953 C   0  0  0  0  0  0  0  0  0  0  0  0
   -4.7463    0.5196  -19.4122 C   0  0  0  0  0  0  0  0  0  0  0  0
   -3.6138    1.3543  -19.6373 C   0  0  0  0  0  0  0  0  0  0  0  0
   -3.2240    1.6592  -20.9108 C   0  0  0  0  0  0  0  0  0  0  0  0
   -3.9547    1.1446  -22.0054 C   0  0  0  0  0  0  0  0  0  0  0  0
   -5.0490    0.3378  -21.8114 C   0  0  0  0  0  0  0  0  0  0  0  0
   -5.4760   -0.0168  -20.5014 C   0  0  0  0  0  0  0  0  0  0  0  0
   -5.5998   -0.0412  -22.6648 H   0  0  0  0  0  0  0  0  0  0  0  0
   -3.6492    1.3995  -23.0150 H   0  0  0  0  0  0  0  0  0  0  0  0
   -2.3689    2.3061  -21.0925 H   0  0  0  0  0  0  0  0  0  0  0  0
   -3.0750    1.7502  -18.7798 H   0  0  0  0  0  0  0  0  0  0  0  0
   -4.6248    0.6065  -17.2445 H   0  0  0  0  0  0  0  0  0  0  0  0
   -7.7577   -1.6832  -18.5983 H   0  0  0  0  0  0  0  0  0  0  0  0
   -6.8685   -2.5241  -22.0646 C   0  0  0  0  0  0  0  0  0  0  0  0
   -5.7045   -2.8070  -22.2260 O   0  0  0  0  0  0  0  0  0  0  0  0
   -8.0670   -3.1533  -22.7643 C   0  0  0  0  0  0  0  0  0  0  0  0
   -7.9932   -3.2314  -24.3125 C   0  0  0  0  0  0  0  0  0  0  0  0
   -7.9497   -4.7157  -24.2586 N   0  0  0  0  0  0  0  0  0  0  0  0
   -9.2121   -5.5453  -25.0258 S   0  0  0  0  0  0  0  0  0  0  0  0
  -10.4624   -4.8798  -24.6695 O   0  0  0  0  0  0  0  0  0  0  0  0
   -9.0095   -6.9456  -24.7283 O   0  0  0  0  0  0  0  0  0  0  0  0
   -9.0122   -5.2802  -26.7724 C   0  0  0  0  0  0  0  0  0  0  0  0
   -9.7681   -4.1426  -27.4113 C   0  0  0  0  0  0  0  0  0  0  0  0
  -10.2444   -5.5500  -27.6078 C   0  0  0  0  0  0  0  0  0  0  0  0
  -10.0955   -6.0220  -28.5776 H   0  0  0  0  0  0  0  0  0  0  0  0
  -11.1443   -5.8745  -27.0855 H   0  0  0  0  0  0  0  0  0  0  0  0
   -9.2881   -3.6436  -28.2490 H   0  0  0  0  0  0  0  0  0  0  0  0
  -10.3440   -3.4934  -26.7519 H   0  0  0  0  0  0  0  0  0  0  0  0
   -8.0301   -5.5694  -27.1377 H   0  0  0  0  0  0  0  0  0  0  0  0
   -8.0655   -4.6939  -22.7584 C   0  0  0  0  0  0  0  0  0  0  0  0
   -7.1848   -5.1265  -22.2848 H   0  0  0  0  0  0  0  0  0  0  0  0
   -8.9770   -5.1380  -22.3525 H   0  0  0  0  0  0  0  0  0  0  0  0
   -8.8525   -2.8115  -24.8469 H   0  0  0  0  0  0  0  0  0  0  0  0
   -7.0675   -2.8407  -24.7308 H   0  0  0  0  0  0  0  0  0  0  0  0
  -10.7680   -2.5483  -23.5528 H   0  0  0  0  0  0  0  0  0  0  0  0
  -11.1583   -2.0213  -21.8870 H   0  0  0  0  0  0  0  0  0  0  0  0
  -10.8456   -3.7484  -22.2393 H   0  0  0  0  0  0  0  0  0  0  0  0
  1  2  1  0
  2  3  1  0
  3  4  2  0
  3  5  1  0
  5  6  1  0
  6  7  2  0
  7  8  1  0
  8  9  2  0
  9 10  1  0
 10 11  2  0
 11 12  1  0
 12 13  2  0
 13 14  1  0
 14 15  2  0
 14 16  1  0
 13 17  1  0
 12 18  1  0
 11 19  1  0
  9 20  1  0
  7 21  1  0
  5 22  1  0
 22 23  2  0
 22 24  1  0
 24 25  1  0
 25 26  1  0
 26 27  1  0
 27 28  2  0
 27 29  2  0
 27 30  1  0
 30 31  1  0
 31 32  1  0
 32 33  1  0
 32 34  1  0
 31 35  1  0
 31 36  1  0
 30 37  1  0
 26 38  1  0
 38 39  1  0
 38 40  1  0
 25 41  1  0
 25 42  1  0
  1 43  1  0
  1 44  1  0
  1 45  1  0
 24  2  1  0
 32 30  1  0
 15  6  1  0
 38 24  1  0
 15 10  1  0
M  END
>  <cnnaffinities>  (77) 
[5.34893, 5.33421, 5.362, 5.38903, 5.41214, 5.40678, 5.39959]

>  <score>  (77) 
5.34893

>  <index>  (77) 
79

>  <Smiles>  (77) 
C(N1C(=O)N(c2c(nc(c3c(c(c(c(c23)[H])[H])[H])[H])[H])[H])C(=O)C21C(N(S(=O)(=O)C1(C(C1([H])[H])([H])[H])[H])C2([H])[H])([H])[H])([H])([H])[H]

>  <h>  (77) 
<NA>

>  <Training>  (77) 
True

>  <Success>  (77) 
True

>  <enamine_searched>  (77) 
False

>  <enamine_id>  (77) 
nan

$$$$

     RDKit          3D

 60 65  0  0  0  0  0  0  0  0999 V2000
   -8.7975   -7.9839  -25.9039 C   0  0  0  0  0  0  0  0  0  0  0  0
   -8.0811   -7.0101  -25.1113 N   0  0  0  0  0  0  0  0  0  0  0  0
   -7.3438   -7.2652  -24.0081 C   0  0  0  0  0  0  0  0  0  0  0  0
   -7.3603   -8.3208  -23.3937 O   0  0  0  0  0  0  0  0  0  0  0  0
   -6.5169   -6.0947  -23.5126 C   0  0  0  0  0  0  0  0  0  0  0  0
   -6.8795   -4.7934  -23.9659 N   0  0  0  0  0  0  0  0  0  0  0  0
   -8.0399   -4.1815  -23.3658 C   0  0  0  0  0  0  0  0  0  0  0  0
   -7.8456   -2.6721  -23.1663 C   0  0  2  0  0  0  0  0  0  0  0  0
   -6.8326   -2.4036  -22.0400 C   0  0  0  0  0  0  0  0  0  0  0  0
   -5.7363   -2.9098  -21.8994 O   0  0  0  0  0  0  0  0  0  0  0  0
   -7.3543   -1.4630  -21.1941 N   0  0  0  0  0  0  0  0  0  0  0  0
   -6.5731   -0.8572  -20.1823 C   0  0  0  0  0  0  0  0  0  0  0  0
   -6.9147   -1.0481  -18.8691 C   0  0  0  0  0  0  0  0  0  0  0  0
   -6.2335   -0.5352  -17.8148 N   0  0  0  0  0  0  0  0  0  0  0  0
   -5.1839    0.2019  -18.0896 C   0  0  0  0  0  0  0  0  0  0  0  0
   -4.7381    0.5049  -19.4080 C   0  0  0  0  0  0  0  0  0  0  0  0
   -3.6145    1.3417  -19.6379 C   0  0  0  0  0  0  0  0  0  0  0  0
   -3.2314    1.6564  -20.9105 C   0  0  0  0  0  0  0  0  0  0  0  0
   -3.9542    1.1490  -22.0169 C   0  0  0  0  0  0  0  0  0  0  0  0
   -5.0417    0.3332  -21.8281 C   0  0  0  0  0  0  0  0  0  0  0  0
   -5.4531   -0.0250  -20.5067 C   0  0  0  0  0  0  0  0  0  0  0  0
   -5.5985   -0.0295  -22.6949 H   0  0  0  0  0  0  0  0  0  0  0  0
   -3.6466    1.4208  -23.0232 H   0  0  0  0  0  0  0  0  0  0  0  0
   -2.3783    2.3075  -21.0871 H   0  0  0  0  0  0  0  0  0  0  0  0
   -3.0811    1.7363  -18.7769 H   0  0  0  0  0  0  0  0  0  0  0  0
   -4.6289    0.6121  -17.2448 H   0  0  0  0  0  0  0  0  0  0  0  0
   -7.7724   -1.6762  -18.6255 H   0  0  0  0  0  0  0  0  0  0  0  0
   -8.6697   -0.9961  -21.5593 C   0  0  0  0  0  0  0  0  0  0  0  0
   -9.1406   -1.9642  -22.6640 C   0  0  2  0  0  0  0  0  0  0  0  0
  -10.2536   -2.8794  -22.1249 C   0  0  0  0  0  0  0  0  0  0  0  0
  -11.0985   -2.2786  -21.7670 H   0  0  0  0  0  0  0  0  0  0  0  0
  -10.6455   -3.5478  -22.8975 H   0  0  0  0  0  0  0  0  0  0  0  0
   -9.9063   -3.4908  -21.2844 H   0  0  0  0  0  0  0  0  0  0  0  0
   -9.5812   -1.4157  -23.5017 H   0  0  0  0  0  0  0  0  0  0  0  0
   -9.3359   -1.0342  -20.7011 H   0  0  0  0  0  0  0  0  0  0  0  0
   -8.6349    0.0492  -21.8913 H   0  0  0  0  0  0  0  0  0  0  0  0
   -7.3095   -2.0803  -24.4647 C   0  0  0  0  0  0  0  0  0  0  0  0
   -7.4618   -0.7173  -24.7475 C   0  0  0  0  0  0  0  0  0  0  0  0
   -6.9278   -0.1871  -25.9114 C   0  0  0  0  0  0  0  0  0  0  0  0
   -7.1242    1.5172  -26.2351 Cl  0  0  0  0  0  0  0  0  0  0  0  0
   -6.2296   -0.9773  -26.8258 C   0  0  0  0  0  0  0  0  0  0  0  0
   -6.0505   -2.3154  -26.5383 C   0  0  0  0  0  0  0  0  0  0  0  0
   -6.5670   -2.8564  -25.3619 C   0  0  0  0  0  0  0  0  0  0  0  0
   -6.2573   -4.2796  -25.0754 C   0  0  0  0  0  0  0  0  0  0  0  0
   -5.4959   -4.9487  -25.7609 O   0  0  0  0  0  0  0  0  0  0  0  0
   -5.4918   -2.9726  -27.1988 H   0  0  0  0  0  0  0  0  0  0  0  0
   -5.8236   -0.5249  -27.7244 H   0  0  0  0  0  0  0  0  0  0  0  0
   -7.9944   -0.0567  -24.0680 H   0  0  0  0  0  0  0  0  0  0  0  0
   -8.2160   -4.6664  -22.4067 H   0  0  0  0  0  0  0  0  0  0  0  0
   -8.9211   -4.3288  -24.0040 H   0  0  0  0  0  0  0  0  0  0  0  0
   -6.1417   -6.2441  -22.0636 C   0  0  0  0  0  0  0  0  0  0  0  0
   -5.0889   -6.3407  -23.1180 C   0  0  0  0  0  0  0  0  0  0  0  0
   -4.6750   -7.3077  -23.3781 H   0  0  0  0  0  0  0  0  0  0  0  0
   -4.4030   -5.5053  -23.2293 H   0  0  0  0  0  0  0  0  0  0  0  0
   -6.1799   -5.3405  -21.4641 H   0  0  0  0  0  0  0  0  0  0  0  0
   -6.4815   -7.1759  -21.6253 H   0  0  0  0  0  0  0  0  0  0  0  0
   -7.9566   -6.1132  -25.5445 H   0  0  0  0  0  0  0  0  0  0  0  0
   -8.1269   -8.7228  -26.3384 H   0  0  0  0  0  0  0  0  0  0  0  0
   -9.5530   -8.5145  -25.3199 H   0  0  0  0  0  0  0  0  0  0  0  0
   -9.2826   -7.4519  -26.7247 H   0  0  0  0  0  0  0  0  0  0  0  0
  1  2  1  0
  2  3  1  0
  3  4  2  0
  3  5  1  0
  5  6  1  0
  6  7  1  0
  8  7  1  6
  8  9  1  0
  9 10  2  0
  9 11  1  0
 11 12  1  0
 12 13  2  0
 13 14  1  0
 14 15  2  0
 15 16  1  0
 16 17  2  0
 17 18  1  0
 18 19  2  0
 19 20  1  0
 20 21  2  0
 20 22  1  0
 19 23  1  0
 18 24  1  0
 17 25  1  0
 15 26  1  0
 13 27  1  0
 11 28  1  0
 28 29  1  0
 29 30  1  0
 30 31  1  0
 30 32  1  0
 30 33  1  0
 29 34  1  6
 28 35  1  0
 28 36  1  0
  8 37  1  0
 37 38  2  0
 38 39  1  0
 39 40  1  0
 39 41  2  0
 41 42  1  0
 42 43  2  0
 43 44  1  0
 44 45  2  0
 42 46  1  0
 41 47  1  0
 38 48  1  0
  7 49  1  0
  7 50  1  0
  5 51  1  0
 51 52  1  0
 52 53  1  0
 52 54  1  0
 51 55  1  0
 51 56  1  0
  2 57  1  0
  1 58  1  0
  1 59  1  0
  1 60  1  0
 52  5  1  0
 44  6  1  0
 29  8  1  0
 43 37  1  0
 21 12  1  0
 21 16  1  0
M  END
>  <cnnaffinities>  (78) 
[6.10482, 6.49161]

>  <score>  (78) 
6.10482

>  <index>  (78) 
80

>  <Smiles>  (78) 
C(N(C(=O)C1(N2C([C@@]3(C(=O)N(c4c(nc(c5c(c(c(c(c45)[H])[H])[H])[H])[H])[H])C([C@@]3(C([H])([H])[H])[H])([H])[H])c3c(c(Cl)c(c(c3C2=O)[H])[H])[H])([H])[H])C(C1([H])[H])([H])[H])[H])([H])([H])[H]

>  <h>  (78) 
<NA>

>  <Training>  (78) 
True

>  <Success>  (78) 
True

>  <enamine_searched>  (78) 
False

>  <enamine_id>  (78) 
nan

$$$$

     RDKit          3D

 36 38  0  0  0  0  0  0  0  0999 V2000
   -8.5087    0.7081  -21.4596 O   0  0  0  0  0  0  0  0  0  0  0  0
   -8.3859   -0.4026  -21.9329 C   0  0  0  0  0  0  0  0  0  0  0  0
   -7.4380   -1.4334  -21.2754 C   0  0  0  0  0  0  0  0  0  0  0  0
   -6.5816   -0.8289  -20.1832 C   0  0  0  0  0  0  0  0  0  0  0  0
   -6.8806   -1.0381  -18.8613 C   0  0  0  0  0  0  0  0  0  0  0  0
   -6.1979   -0.5324  -17.7972 N   0  0  0  0  0  0  0  0  0  0  0  0
   -5.1574    0.2189  -18.0646 C   0  0  0  0  0  0  0  0  0  0  0  0
   -4.7242    0.5330  -19.3810 C   0  0  0  0  0  0  0  0  0  0  0  0
   -3.5984    1.3642  -19.6209 C   0  0  0  0  0  0  0  0  0  0  0  0
   -3.2094    1.6573  -20.9009 C   0  0  0  0  0  0  0  0  0  0  0  0
   -3.9326    1.1284  -21.9933 C   0  0  0  0  0  0  0  0  0  0  0  0
   -5.0261    0.3213  -21.7870 C   0  0  0  0  0  0  0  0  0  0  0  0
   -5.4545    0.0005  -20.4723 C   0  0  0  0  0  0  0  0  0  0  0  0
   -5.5785   -0.0641  -22.6374 H   0  0  0  0  0  0  0  0  0  0  0  0
   -3.6240    1.3738  -23.0046 H   0  0  0  0  0  0  0  0  0  0  0  0
   -2.3543    2.3022  -21.0886 H   0  0  0  0  0  0  0  0  0  0  0  0
   -3.0543    1.7715  -18.7724 H   0  0  0  0  0  0  0  0  0  0  0  0
   -4.6018    0.6245  -17.2168 H   0  0  0  0  0  0  0  0  0  0  0  0
   -7.7296   -1.6595  -18.5849 H   0  0  0  0  0  0  0  0  0  0  0  0
   -6.8025   -1.8995  -22.0407 H   0  0  0  0  0  0  0  0  0  0  0  0
   -8.0412   -2.2449  -20.8446 H   0  0  0  0  0  0  0  0  0  0  0  0
   -9.0618   -0.7720  -23.0893 N   0  0  0  0  0  0  0  0  0  0  0  0
  -10.0067    0.1959  -23.6424 C   0  0  0  0  0  0  0  0  0  0  0  0
  -11.3811    0.2147  -23.0217 C   0  0  0  0  0  0  0  0  0  0  0  0
  -12.0222   -0.7927  -22.4198 C   0  0  0  0  0  0  0  0  0  0  0  0
  -11.5709   -2.1758  -22.1571 C   0  0  0  0  0  0  0  0  0  0  0  0
  -10.4472   -2.7812  -22.5519 C   0  0  0  0  0  0  0  0  0  0  0  0
   -9.3682   -2.1606  -23.4047 C   0  0  0  0  0  0  0  0  0  0  0  0
   -8.4503   -2.7534  -23.3599 H   0  0  0  0  0  0  0  0  0  0  0  0
   -9.6846   -2.1761  -24.4541 H   0  0  0  0  0  0  0  0  0  0  0  0
  -10.2837   -3.8158  -22.2468 H   0  0  0  0  0  0  0  0  0  0  0  0
  -12.2763   -2.7642  -21.5732 H   0  0  0  0  0  0  0  0  0  0  0  0
  -13.0201   -0.5790  -22.0395 H   0  0  0  0  0  0  0  0  0  0  0  0
  -11.8928    1.1787  -23.0813 H   0  0  0  0  0  0  0  0  0  0  0  0
  -10.1134   -0.0402  -24.7080 H   0  0  0  0  0  0  0  0  0  0  0  0
   -9.5583    1.1917  -23.5953 H   0  0  0  0  0  0  0  0  0  0  0  0
  1  2  2  0
  2  3  1  0
  3  4  1  0
  4  5  2  0
  5  6  1  0
  6  7  2  0
  7  8  1  0
  8  9  2  0
  9 10  1  0
 10 11  2  0
 11 12  1  0
 12 13  2  0
 12 14  1  0
 11 15  1  0
 10 16  1  0
  9 17  1  0
  7 18  1  0
  5 19  1  0
  3 20  1  0
  3 21  1  0
  2 22  1  0
 22 23  1  0
 23 24  1  0
 24 25  2  0
 25 26  1  0
 26 27  2  0
 27 28  1  0
 28 29  1  0
 28 30  1  0
 27 31  1  0
 26 32  1  0
 25 33  1  0
 24 34  1  0
 23 35  1  0
 23 36  1  0
 13  4  1  0
 28 22  1  0
 13  8  1  0
M  END
>  <cnnaffinities>  (79) 
[4.82334, 4.82334, 4.91316, 4.91363, 4.68014]

>  <score>  (79) 
4.82334

>  <index>  (79) 
81

>  <Smiles>  (79) 
O=C(C(c1c(nc(c2c(c(c(c(c12)[H])[H])[H])[H])[H])[H])([H])[H])N1C(C(=C(C(=C(C1([H])[H])[H])[H])[H])[H])([H])[H]

>  <h>  (79) 
<NA>

>  <Training>  (79) 
True

>  <Success>  (79) 
True

>  <enamine_searched>  (79) 
False

>  <enamine_id>  (79) 
nan

$$$$

     RDKit          3D

 54 57  0  0  0  0  0  0  0  0999 V2000
  -10.6581    0.3806  -25.3297 C   0  0  0  0  0  0  0  0  0  0  0  0
   -9.7875   -0.5991  -24.8332 O   0  0  0  0  0  0  0  0  0  0  0  0
   -8.4776   -0.5208  -25.1875 C   0  0  0  0  0  0  0  0  0  0  0  0
   -7.9509    0.5032  -25.9764 C   0  0  0  0  0  0  0  0  0  0  0  0
   -6.5836    0.5341  -26.2403 C   0  0  0  0  0  0  0  0  0  0  0  0
   -5.7605   -0.4567  -25.7244 C   0  0  0  0  0  0  0  0  0  0  0  0
   -6.3053   -1.4782  -24.9439 C   0  0  0  0  0  0  0  0  0  0  0  0
   -7.6639   -1.5481  -24.6734 C   0  0  0  0  0  0  0  0  0  0  0  0
   -8.3054   -2.6628  -23.8348 C   0  0  1  0  0  0  0  0  0  0  0  0
   -9.1476   -3.6451  -24.6845 C   0  0  0  0  0  0  0  0  0  0  0  0
   -8.4066   -4.8553  -25.2699 C   0  0  1  0  0  0  0  0  0  0  0  0
   -7.5043   -4.5299  -26.4654 C   0  0  0  0  0  0  0  0  0  0  0  0
   -6.6807   -3.8628  -26.1914 H   0  0  0  0  0  0  0  0  0  0  0  0
   -7.0703   -5.4456  -26.8850 H   0  0  0  0  0  0  0  0  0  0  0  0
   -8.0763   -4.0371  -27.2603 H   0  0  0  0  0  0  0  0  0  0  0  0
   -7.6727   -5.5502  -24.1196 C   0  0  0  0  0  0  0  0  0  0  0  0
   -6.7145   -4.6055  -23.4038 C   0  0  0  0  0  0  0  0  0  0  0  0
   -7.3608   -3.3669  -22.9598 N   0  0  0  0  0  0  0  0  0  0  0  0
   -6.7457   -2.7482  -21.8892 C   0  0  0  0  0  0  0  0  0  0  0  0
   -5.7250   -3.2069  -21.4022 O   0  0  0  0  0  0  0  0  0  0  0  0
   -7.3974   -1.4839  -21.2905 C   0  0  0  0  0  0  0  0  0  0  0  0
   -6.5736   -0.8509  -20.1948 C   0  0  0  0  0  0  0  0  0  0  0  0
   -6.8801   -1.0584  -18.8735 C   0  0  0  0  0  0  0  0  0  0  0  0
   -6.2054   -0.5423  -17.8086 N   0  0  0  0  0  0  0  0  0  0  0  0
   -5.1664    0.2097  -18.0729 C   0  0  0  0  0  0  0  0  0  0  0  0
   -4.7207    0.5156  -19.3885 C   0  0  0  0  0  0  0  0  0  0  0  0
   -3.5949    1.3451  -19.6237 C   0  0  0  0  0  0  0  0  0  0  0  0
   -3.1970    1.6230  -20.9021 C   0  0  0  0  0  0  0  0  0  0  0  0
   -3.9071    1.0838  -21.9988 C   0  0  0  0  0  0  0  0  0  0  0  0
   -5.0016    0.2788  -21.7968 C   0  0  0  0  0  0  0  0  0  0  0  0
   -5.4399   -0.0285  -20.4808 C   0  0  0  0  0  0  0  0  0  0  0  0
   -5.5486   -0.1151  -22.6504 H   0  0  0  0  0  0  0  0  0  0  0  0
   -3.5908    1.3235  -23.0101 H   0  0  0  0  0  0  0  0  0  0  0  0
   -2.3443    2.2685  -21.0845 H   0  0  0  0  0  0  0  0  0  0  0  0
   -3.0664    1.7566  -18.7671 H   0  0  0  0  0  0  0  0  0  0  0  0
   -4.6184    0.6199  -17.2218 H   0  0  0  0  0  0  0  0  0  0  0  0
   -7.7322   -1.6783  -18.5974 H   0  0  0  0  0  0  0  0  0  0  0  0
   -7.6118   -0.7633  -22.0903 H   0  0  0  0  0  0  0  0  0  0  0  0
   -8.3725   -1.7826  -20.8815 H   0  0  0  0  0  0  0  0  0  0  0  0
   -6.3193   -5.0738  -22.5019 H   0  0  0  0  0  0  0  0  0  0  0  0
   -5.8456   -4.3913  -24.0472 H   0  0  0  0  0  0  0  0  0  0  0  0
   -8.4128   -5.9206  -23.3967 H   0  0  0  0  0  0  0  0  0  0  0  0
   -7.1070   -6.4171  -24.4935 H   0  0  0  0  0  0  0  0  0  0  0  0
   -9.1804   -5.5478  -25.6318 H   0  0  0  0  0  0  0  0  0  0  0  0
   -9.6239   -3.0686  -25.4855 H   0  0  0  0  0  0  0  0  0  0  0  0
   -9.9457   -4.0269  -24.0332 H   0  0  0  0  0  0  0  0  0  0  0  0
   -9.0299   -2.1627  -23.1808 H   0  0  0  0  0  0  0  0  0  0  0  0
   -5.6563   -2.2583  -24.5504 H   0  0  0  0  0  0  0  0  0  0  0  0
   -4.6945   -0.4544  -25.9250 H   0  0  0  0  0  0  0  0  0  0  0  0
   -6.1672    1.3403  -26.8426 H   0  0  0  0  0  0  0  0  0  0  0  0
   -8.5928    1.2819  -26.3737 H   0  0  0  0  0  0  0  0  0  0  0  0
  -11.6496    0.0693  -24.9985 H   0  0  0  0  0  0  0  0  0  0  0  0
  -10.5974    0.4258  -26.4219 H   0  0  0  0  0  0  0  0  0  0  0  0
  -10.4231    1.3730  -24.9244 H   0  0  0  0  0  0  0  0  0  0  0  0
  1  2  1  0
  2  3  1  0
  3  4  2  0
  4  5  1  0
  5  6  2  0
  6  7  1  0
  7  8  2  0
  8  9  1  0
  9 10  1  0
 10 11  1  0
 11 12  1  0
 12 13  1  0
 12 14  1  0
 12 15  1  0
 11 16  1  0
 16 17  1  0
 17 18  1  0
 18 19  1  0
 19 20  2  0
 19 21  1  0
 21 22  1  0
 22 23  2  0
 23 24  1  0
 24 25  2  0
 25 26  1  0
 26 27  2  0
 27 28  1  0
 28 29  2  0
 29 30  1  0
 30 31  2  0
 30 32  1  0
 29 33  1  0
 28 34  1  0
 27 35  1  0
 25 36  1  0
 23 37  1  0
 21 38  1  0
 21 39  1  0
 17 40  1  0
 17 41  1  0
 16 42  1  0
 16 43  1  0
 11 44  1  6
 10 45  1  0
 10 46  1  0
  9 47  1  1
  7 48  1  0
  6 49  1  0
  5 50  1  0
  4 51  1  0
  1 52  1  0
  1 53  1  0
  1 54  1  0
  8  3  1  0
 18  9  1  0
 31 22  1  0
 31 26  1  0
M  END
>  <cnnaffinities>  (80) 
[5.27428, 5.40801]

>  <score>  (80) 
5.27428

>  <index>  (80) 
82

>  <Smiles>  (80) 
C(Oc1c(c(c(c(c1[C@]1(C([C@@](C([H])([H])[H])(C(C(N1C(=O)C(c1c(nc(c2c(c(c(c(c12)[H])[H])[H])[H])[H])[H])([H])[H])([H])[H])([H])[H])[H])([H])[H])[H])[H])[H])[H])[H])([H])([H])[H]

>  <h>  (80) 
<NA>

>  <Training>  (80) 
True

>  <Success>  (80) 
True

>  <enamine_searched>  (80) 
False

>  <enamine_id>  (80) 
nan

$$$$

     RDKit          3D

 46 50  0  0  0  0  0  0  0  0999 V2000
   -3.8762   -1.3989  -25.3056 N   0  0  0  0  0  0  0  0  0  0  0  0
   -4.7192   -1.9836  -26.6250 S   0  0  0  0  0  0  0  0  0  0  0  0
   -4.3678   -1.1710  -27.7798 O   0  0  0  0  0  0  0  0  0  0  0  0
   -4.5340   -3.4220  -26.6331 O   0  0  0  0  0  0  0  0  0  0  0  0
   -6.3767   -1.5703  -26.1703 C   0  0  0  0  0  0  0  0  0  0  0  0
   -7.1739   -0.9969  -27.1542 C   0  0  0  0  0  0  0  0  0  0  0  0
   -8.4746   -0.6473  -26.8520 C   0  0  0  0  0  0  0  0  0  0  0  0
   -8.9802   -0.8820  -25.5712 C   0  0  0  0  0  0  0  0  0  0  0  0
   -8.1732   -1.4402  -24.5696 C   0  0  0  0  0  0  0  0  0  0  0  0
   -6.8605   -1.7938  -24.8890 C   0  0  0  0  0  0  0  0  0  0  0  0
   -6.1894   -2.2013  -24.1375 H   0  0  0  0  0  0  0  0  0  0  0  0
   -8.7151   -1.6596  -23.1639 C   0  0  1  0  0  0  0  0  0  0  0  0
  -10.2500   -1.5724  -23.1914 C   0  0  0  0  0  0  0  0  0  0  0  0
  -10.6980   -0.3998  -24.0468 C   0  0  0  0  0  0  0  0  0  0  0  0
  -10.3008   -0.6027  -25.3962 O   0  0  0  0  0  0  0  0  0  0  0  0
  -10.2711    0.5420  -23.6786 H   0  0  0  0  0  0  0  0  0  0  0  0
  -11.7868   -0.3141  -24.0698 H   0  0  0  0  0  0  0  0  0  0  0  0
  -10.6427   -1.4803  -22.1781 H   0  0  0  0  0  0  0  0  0  0  0  0
  -10.6272   -2.5072  -23.6193 H   0  0  0  0  0  0  0  0  0  0  0  0
   -8.2511   -2.9060  -22.5754 N   0  0  0  0  0  0  0  0  0  0  0  0
   -7.3531   -2.7561  -21.5608 C   0  0  0  0  0  0  0  0  0  0  0  0
   -6.6440   -3.5904  -21.0362 O   0  0  0  0  0  0  0  0  0  0  0  0
   -7.3620   -1.3860  -21.2571 N   0  0  0  0  0  0  0  0  0  0  0  0
   -6.5890   -0.8207  -20.2148 C   0  0  0  0  0  0  0  0  0  0  0  0
   -6.9162   -1.0559  -18.9052 C   0  0  0  0  0  0  0  0  0  0  0  0
   -6.2468   -0.5472  -17.8398 N   0  0  0  0  0  0  0  0  0  0  0  0
   -5.2057    0.2045  -18.0999 C   0  0  0  0  0  0  0  0  0  0  0  0
   -4.7464    0.5115  -19.4133 C   0  0  0  0  0  0  0  0  0  0  0  0
   -3.6034    1.3240  -19.6330 C   0  0  0  0  0  0  0  0  0  0  0  0
   -3.1882    1.5856  -20.9086 C   0  0  0  0  0  0  0  0  0  0  0  0
   -3.8801    1.0467  -22.0150 C   0  0  0  0  0  0  0  0  0  0  0  0
   -4.9852    0.2585  -21.8323 C   0  0  0  0  0  0  0  0  0  0  0  0
   -5.4530   -0.0143  -20.5152 C   0  0  0  0  0  0  0  0  0  0  0  0
   -5.5132   -0.1514  -22.6910 H   0  0  0  0  0  0  0  0  0  0  0  0
   -3.5314    1.2663  -23.0194 H   0  0  0  0  0  0  0  0  0  0  0  0
   -2.3233    2.2152  -21.0813 H   0  0  0  0  0  0  0  0  0  0  0  0
   -3.0751    1.7231  -18.7709 H   0  0  0  0  0  0  0  0  0  0  0  0
   -4.6653    0.6049  -17.2421 H   0  0  0  0  0  0  0  0  0  0  0  0
   -7.7763   -1.6777  -18.6820 H   0  0  0  0  0  0  0  0  0  0  0  0
   -8.1488   -0.6561  -22.1491 C   0  0  0  0  0  0  0  0  0  0  0  0
   -8.3523    0.5299  -22.0888 O   0  0  0  0  0  0  0  0  0  0  0  0
   -8.3521   -3.7945  -23.0312 H   0  0  0  0  0  0  0  0  0  0  0  0
   -9.1155   -0.1945  -27.6001 H   0  0  0  0  0  0  0  0  0  0  0  0
   -6.7375   -0.7941  -28.1269 H   0  0  0  0  0  0  0  0  0  0  0  0
   -3.0022   -1.9141  -25.2074 H   0  0  0  0  0  0  0  0  0  0  0  0
   -3.6808   -0.4157  -25.4589 H   0  0  0  0  0  0  0  0  0  0  0  0
  1  2  1  0
  2  3  2  0
  2  4  2  0
  2  5  1  0
  5  6  2  0
  6  7  1  0
  7  8  2  0
  8  9  1  0
  9 10  2  0
 10 11  1  0
  9 12  1  0
 12 13  1  0
 13 14  1  0
 14 15  1  0
 14 16  1  0
 14 17  1  0
 13 18  1  0
 13 19  1  0
 12 20  1  1
 20 21  1  0
 21 22  2  0
 21 23  1  0
 23 24  1  0
 24 25  2  0
 25 26  1  0
 26 27  2  0
 27 28  1  0
 28 29  2  0
 29 30  1  0
 30 31  2  0
 31 32  1  0
 32 33  2  0
 32 34  1  0
 31 35  1  0
 30 36  1  0
 29 37  1  0
 27 38  1  0
 25 39  1  0
 23 40  1  0
 40 41  2  0
 20 42  1  0
  7 43  1  0
  6 44  1  0
  1 45  1  0
  1 46  1  0
 10  5  1  0
 40 12  1  0
 15  8  1  0
 33 24  1  0
 33 28  1  0
M  END
>  <cnnaffinities>  (81) 
[5.35022, 5.30447]

>  <score>  (81) 
5.35022

>  <index>  (81) 
83

>  <Smiles>  (81) 
N(S(=O)(=O)c1c(c(c2c(c1[H])[C@@]1(C(C(O2)([H])[H])([H])[H])N(C(=O)N(c2c(nc(c3c(c(c(c(c23)[H])[H])[H])[H])[H])[H])C1=O)[H])[H])[H])([H])[H]

>  <h>  (81) 
<NA>

>  <Training>  (81) 
True

>  <Success>  (81) 
True

>  <enamine_searched>  (81) 
False

>  <enamine_id>  (81) 
nan

$$$$

     RDKit          3D

 63 68  0  0  0  0  0  0  0  0999 V2000
  -10.1680   -2.9693  -22.1328 C   0  0  0  0  0  0  0  0  0  0  0  0
   -9.0851   -2.0277  -22.6806 C   0  0  1  0  0  0  0  0  0  0  0  0
   -8.6458   -1.0156  -21.6025 C   0  0  0  0  0  0  0  0  0  0  0  0
   -7.3507   -1.4879  -21.1757 N   0  0  0  0  0  0  0  0  0  0  0  0
   -6.5852   -0.8614  -20.1716 C   0  0  0  0  0  0  0  0  0  0  0  0
   -6.9394   -1.0365  -18.8603 C   0  0  0  0  0  0  0  0  0  0  0  0
   -6.2630   -0.5182  -17.8090 N   0  0  0  0  0  0  0  0  0  0  0  0
   -5.2041    0.2050  -18.0872 C   0  0  0  0  0  0  0  0  0  0  0  0
   -4.7502    0.4927  -19.4065 C   0  0  0  0  0  0  0  0  0  0  0  0
   -3.6164    1.3143  -19.6319 C   0  0  0  0  0  0  0  0  0  0  0  0
   -3.2342    1.6324  -20.9043 C   0  0  0  0  0  0  0  0  0  0  0  0
   -3.9614    1.1335  -22.0108 C   0  0  0  0  0  0  0  0  0  0  0  0
   -5.0504    0.3170  -21.8263 C   0  0  0  0  0  0  0  0  0  0  0  0
   -5.4648   -0.0353  -20.5030 C   0  0  0  0  0  0  0  0  0  0  0  0
   -5.6002   -0.0526  -22.6946 H   0  0  0  0  0  0  0  0  0  0  0  0
   -3.6545    1.4123  -23.0151 H   0  0  0  0  0  0  0  0  0  0  0  0
   -2.3825    2.2853  -21.0746 H   0  0  0  0  0  0  0  0  0  0  0  0
   -3.0809    1.6965  -18.7674 H   0  0  0  0  0  0  0  0  0  0  0  0
   -4.6476    0.6147  -17.2443 H   0  0  0  0  0  0  0  0  0  0  0  0
   -7.8074   -1.6499  -18.6214 H   0  0  0  0  0  0  0  0  0  0  0  0
   -6.7993   -2.4600  -21.9715 C   0  0  0  0  0  0  0  0  0  0  0  0
   -5.7261   -2.9809  -21.7563 O   0  0  0  0  0  0  0  0  0  0  0  0
   -7.7669   -2.7244  -23.1424 C   0  0  1  0  0  0  0  0  0  0  0  0
   -7.9186   -4.2432  -23.3372 C   0  0  0  0  0  0  0  0  0  0  0  0
   -6.6690   -4.8130  -23.8163 N   0  0  0  0  0  0  0  0  0  0  0  0
   -6.3604   -6.1647  -23.3891 C   0  0  0  0  0  0  0  0  0  0  0  0
   -7.3024   -7.1113  -24.1421 C   0  0  0  0  0  0  0  0  0  0  0  0
   -8.3085   -7.5926  -23.6510 O   0  0  0  0  0  0  0  0  0  0  0  0
   -6.9013   -7.2546  -25.4368 N   0  0  0  0  0  0  0  0  0  0  0  0
   -7.7514   -7.7686  -26.4785 C   0  0  0  0  0  0  0  0  0  0  0  0
   -8.6794   -6.7340  -27.0464 C   0  0  0  0  0  0  0  0  0  0  0  0
   -9.6103   -6.2946  -26.1322 F   0  0  0  0  0  0  0  0  0  0  0  0
   -8.2167   -5.7594  -28.0741 C   0  0  0  0  0  0  0  0  0  0  0  0
   -9.1264   -6.9116  -28.4487 C   0  0  0  0  0  0  0  0  0  0  0  0
  -10.1414   -6.6399  -28.6881 H   0  0  0  0  0  0  0  0  0  0  0  0
   -8.7142   -7.7217  -29.0381 H   0  0  0  0  0  0  0  0  0  0  0  0
   -8.6897   -4.7850  -28.0559 H   0  0  0  0  0  0  0  0  0  0  0  0
   -7.1634   -5.7619  -28.3507 H   0  0  0  0  0  0  0  0  0  0  0  0
   -7.0934   -8.1239  -27.2841 H   0  0  0  0  0  0  0  0  0  0  0  0
   -8.3391   -8.6082  -26.1100 H   0  0  0  0  0  0  0  0  0  0  0  0
   -6.1373   -6.6549  -25.7491 H   0  0  0  0  0  0  0  0  0  0  0  0
   -5.3076   -6.3616  -23.6078 H   0  0  0  0  0  0  0  0  0  0  0  0
   -6.5050   -6.2261  -22.3100 H   0  0  0  0  0  0  0  0  0  0  0  0
   -6.0870   -4.3281  -24.9457 C   0  0  0  0  0  0  0  0  0  0  0  0
   -5.3170   -5.0020  -25.6371 O   0  0  0  0  0  0  0  0  0  0  0  0
   -6.4290   -2.9231  -25.3018 C   0  0  0  0  0  0  0  0  0  0  0  0
   -5.9403   -2.4082  -26.5051 C   0  0  0  0  0  0  0  0  0  0  0  0
   -6.1557   -1.0856  -26.8380 C   0  0  0  0  0  0  0  0  0  0  0  0
   -6.8685   -0.2925  -25.9465 C   0  0  0  0  0  0  0  0  0  0  0  0
   -7.0792    0.9992  -26.2602 F   0  0  0  0  0  0  0  0  0  0  0  0
   -7.3848   -0.7856  -24.7616 C   0  0  0  0  0  0  0  0  0  0  0  0
   -7.1987   -2.1353  -24.4343 C   0  0  0  0  0  0  0  0  0  0  0  0
   -7.9449   -0.1038  -24.1288 H   0  0  0  0  0  0  0  0  0  0  0  0
   -5.7809   -0.6550  -27.7602 H   0  0  0  0  0  0  0  0  0  0  0  0
   -5.3837   -3.0698  -27.1625 H   0  0  0  0  0  0  0  0  0  0  0  0
   -8.7374   -4.4456  -24.0485 H   0  0  0  0  0  0  0  0  0  0  0  0
   -8.1611   -4.7277  -22.3906 H   0  0  0  0  0  0  0  0  0  0  0  0
   -8.5877    0.0119  -21.9866 H   0  0  0  0  0  0  0  0  0  0  0  0
   -9.3390   -0.9980  -20.7625 H   0  0  0  0  0  0  0  0  0  0  0  0
   -9.5309   -1.5079  -23.5357 H   0  0  0  0  0  0  0  0  0  0  0  0
  -11.0404   -2.3926  -21.8077 H   0  0  0  0  0  0  0  0  0  0  0  0
  -10.5090   -3.6723  -22.8988 H   0  0  0  0  0  0  0  0  0  0  0  0
   -9.8110   -3.5491  -21.2743 H   0  0  0  0  0  0  0  0  0  0  0  0
  1  2  1  0
  2  3  1  0
  3  4  1  0
  4  5  1  0
  5  6  2  0
  6  7  1  0
  7  8  2  0
  8  9  1  0
  9 10  2  0
 10 11  1  0
 11 12  2  0
 12 13  1  0
 13 14  2  0
 13 15  1  0
 12 16  1  0
 11 17  1  0
 10 18  1  0
  8 19  1  0
  6 20  1  0
  4 21  1  0
 21 22  2  0
 21 23  1  0
 23 24  1  6
 24 25  1  0
 25 26  1  0
 26 27  1  0
 27 28  2  0
 27 29  1  0
 29 30  1  0
 30 31  1  0
 31 32  1  0
 31 33  1  0
 33 34  1  0
 34 35  1  0
 34 36  1  0
 33 37  1  0
 33 38  1  0
 30 39  1  0
 30 40  1  0
 29 41  1  0
 26 42  1  0
 26 43  1  0
 25 44  1  0
 44 45  2  0
 44 46  1  0
 46 47  2  0
 47 48  1  0
 48 49  2  0
 49 50  1  0
 49 51  1  0
 51 52  2  0
 51 53  1  0
 48 54  1  0
 47 55  1  0
 24 56  1  0
 24 57  1  0
  3 58  1  0
  3 59  1  0
  2 60  1  6
  1 61  1  0
  1 62  1  0
  1 63  1  0
 23  2  1  0
 34 31  1  0
 52 46  1  0
 14  5  1  0
 52 23  1  0
 14  9  1  0
M  END
>  <cnnaffinities>  (82) 
[6.35323]

>  <score>  (82) 
6.35323

>  <index>  (82) 
84

>  <Smiles>  (82) 
C([C@]1(C(N(c2c(nc(c3c(c(c(c(c23)[H])[H])[H])[H])[H])[H])C(=O)[C@]21C(N(C(C(=O)N(C(C1(F)C(C1([H])[H])([H])[H])([H])[H])[H])([H])[H])C(=O)c1c(c(c(F)c(c21)[H])[H])[H])([H])[H])([H])[H])[H])([H])([H])[H]

>  <h>  (82) 
<NA>

>  <Training>  (82) 
True

>  <Success>  (82) 
True

>  <enamine_searched>  (82) 
False

>  <enamine_id>  (82) 
nan

$$$$

     RDKit          3D

 57 62  0  0  0  0  0  0  0  0999 V2000
   -8.7471    1.1764  -29.4115 C   0  0  0  0  0  0  0  0  0  0  0  0
   -8.8636    1.4753  -27.9929 N   0  0  0  0  0  0  0  0  0  0  0  0
   -8.1762    0.6840  -27.1169 C   0  0  0  0  0  0  0  0  0  0  0  0
   -7.4728   -0.2473  -27.4691 O   0  0  0  0  0  0  0  0  0  0  0  0
   -8.3005    1.0836  -25.6427 C   0  0  0  0  0  0  0  0  0  0  0  0
   -9.1494    0.1905  -24.8885 N   0  0  0  0  0  0  0  0  0  0  0  0
   -8.6599   -1.1247  -24.5216 C   0  0  0  0  0  0  0  0  0  0  0  0
   -8.9656   -1.4800  -23.0460 C   0  0  2  0  0  0  0  0  0  0  0  0
   -8.1658   -0.5630  -22.0921 C   0  0  0  0  0  0  0  0  0  0  0  0
   -8.1813    0.6444  -22.0694 O   0  0  0  0  0  0  0  0  0  0  0  0
   -7.3868   -1.3441  -21.2567 N   0  0  0  0  0  0  0  0  0  0  0  0
   -6.5974   -0.8074  -20.2104 C   0  0  0  0  0  0  0  0  0  0  0  0
   -6.9076   -1.0603  -18.8963 C   0  0  0  0  0  0  0  0  0  0  0  0
   -6.2302   -0.5591  -17.8321 N   0  0  0  0  0  0  0  0  0  0  0  0
   -5.1889    0.1963  -18.0876 C   0  0  0  0  0  0  0  0  0  0  0  0
   -4.7332    0.5094  -19.3998 C   0  0  0  0  0  0  0  0  0  0  0  0
   -3.5990    1.3352  -19.6215 C   0  0  0  0  0  0  0  0  0  0  0  0
   -3.1803    1.6114  -20.8941 C   0  0  0  0  0  0  0  0  0  0  0  0
   -3.8631    1.0649  -22.0029 C   0  0  0  0  0  0  0  0  0  0  0  0
   -4.9584    0.2612  -21.8147 C   0  0  0  0  0  0  0  0  0  0  0  0
   -5.4393   -0.0160  -20.5032 C   0  0  0  0  0  0  0  0  0  0  0  0
   -5.4811   -0.1498  -22.6718 H   0  0  0  0  0  0  0  0  0  0  0  0
   -3.5255    1.2943  -23.0098 H   0  0  0  0  0  0  0  0  0  0  0  0
   -2.3247    2.2589  -21.0644 H   0  0  0  0  0  0  0  0  0  0  0  0
   -3.0799    1.7441  -18.7598 H   0  0  0  0  0  0  0  0  0  0  0  0
   -4.6430    0.5998  -17.2343 H   0  0  0  0  0  0  0  0  0  0  0  0
   -7.7711   -1.6765  -18.6476 H   0  0  0  0  0  0  0  0  0  0  0  0
   -7.6357   -2.7564  -21.3812 C   0  0  0  0  0  0  0  0  0  0  0  0
   -8.4710   -2.8804  -22.6452 C   0  0  0  0  0  0  0  0  0  0  0  0
   -9.3311   -4.0947  -22.8198 C   0  0  0  0  0  0  0  0  0  0  0  0
   -8.0861   -3.9425  -23.6426 C   0  0  0  0  0  0  0  0  0  0  0  0
   -7.2330   -4.5788  -23.4126 H   0  0  0  0  0  0  0  0  0  0  0  0
   -8.1905   -3.7165  -24.7001 H   0  0  0  0  0  0  0  0  0  0  0  0
   -9.3495   -4.8252  -22.0126 H   0  0  0  0  0  0  0  0  0  0  0  0
  -10.2860   -3.9540  -23.3173 H   0  0  0  0  0  0  0  0  0  0  0  0
   -6.6944   -3.3130  -21.4390 H   0  0  0  0  0  0  0  0  0  0  0  0
   -8.1963   -3.1214  -20.5186 H   0  0  0  0  0  0  0  0  0  0  0  0
  -10.4597   -1.2367  -22.8635 C   0  0  0  0  0  0  0  0  0  0  0  0
  -11.1946   -1.9758  -21.9370 C   0  0  0  0  0  0  0  0  0  0  0  0
  -12.5662   -1.8111  -21.8573 C   0  0  0  0  0  0  0  0  0  0  0  0
  -13.4674   -2.9517  -20.8950 Cl  0  0  0  0  0  0  0  0  0  0  0  0
  -13.2227   -0.7571  -22.4898 C   0  0  0  0  0  0  0  0  0  0  0  0
  -12.4761    0.0335  -23.3446 C   0  0  0  0  0  0  0  0  0  0  0  0
  -11.1335   -0.2425  -23.5876 C   0  0  0  0  0  0  0  0  0  0  0  0
  -10.4188    0.5925  -24.6032 C   0  0  0  0  0  0  0  0  0  0  0  0
  -10.9179    1.5794  -25.1345 O   0  0  0  0  0  0  0  0  0  0  0  0
  -12.9079    0.8803  -23.8618 H   0  0  0  0  0  0  0  0  0  0  0  0
  -14.2824   -0.5771  -22.3195 H   0  0  0  0  0  0  0  0  0  0  0  0
  -10.7154   -2.7194  -21.3098 H   0  0  0  0  0  0  0  0  0  0  0  0
   -7.5874   -1.1563  -24.7095 H   0  0  0  0  0  0  0  0  0  0  0  0
   -9.1318   -1.8769  -25.1635 H   0  0  0  0  0  0  0  0  0  0  0  0
   -8.7000    2.0972  -25.5377 H   0  0  0  0  0  0  0  0  0  0  0  0
   -7.2944    1.0366  -25.2077 H   0  0  0  0  0  0  0  0  0  0  0  0
   -9.7324    1.8803  -27.6634 H   0  0  0  0  0  0  0  0  0  0  0  0
   -9.1290    0.1768  -29.6534 H   0  0  0  0  0  0  0  0  0  0  0  0
   -9.3050    1.9193  -29.9870 H   0  0  0  0  0  0  0  0  0  0  0  0
   -7.6930    1.2129  -29.6991 H   0  0  0  0  0  0  0  0  0  0  0  0
  1  2  1  0
  2  3  1  0
  3  4  2  0
  3  5  1  0
  5  6  1  0
  6  7  1  0
  8  7  1  6
  8  9  1  0
  9 10  2  0
  9 11  1  0
 11 12  1  0
 12 13  2  0
 13 14  1  0
 14 15  2  0
 15 16  1  0
 16 17  2  0
 17 18  1  0
 18 19  2  0
 19 20  1  0
 20 21  2  0
 20 22  1  0
 19 23  1  0
 18 24  1  0
 17 25  1  0
 15 26  1  0
 13 27  1  0
 11 28  1  0
 28 29  1  0
 29 30  1  0
 30 31  1  0
 31 32  1  0
 31 33  1  0
 30 34  1  0
 30 35  1  0
 28 36  1  0
 28 37  1  0
  8 38  1  0
 38 39  2  0
 39 40  1  0
 40 41  1  0
 40 42  2  0
 42 43  1  0
 43 44  2  0
 44 45  1  0
 45 46  2  0
 43 47  1  0
 42 48  1  0
 39 49  1  0
  7 50  1  0
  7 51  1  0
  5 52  1  0
  5 53  1  0
  2 54  1  0
  1 55  1  0
  1 56  1  0
  1 57  1  0
 45  6  1  0
 29  8  1  0
 44 38  1  0
 21 12  1  0
 31 29  1  0
 21 16  1  0
M  END
>  <cnnaffinities>  (83) 
[5.8973]

>  <score>  (83) 
5.8973

>  <index>  (83) 
85

>  <Smiles>  (83) 
C(N(C(=O)C(N1C([C@@]2(C(=O)N(c3c(nc(c4c(c(c(c(c34)[H])[H])[H])[H])[H])[H])C(C32C(C3([H])[H])([H])[H])([H])[H])c2c(c(Cl)c(c(c2C1=O)[H])[H])[H])([H])[H])([H])[H])[H])([H])([H])[H]

>  <h>  (83) 
<NA>

>  <Training>  (83) 
True

>  <Success>  (83) 
True

>  <enamine_searched>  (83) 
False

>  <enamine_id>  (83) 
nan

$$$$

     RDKit          3D

 43 45  0  0  0  0  0  0  0  0999 V2000
   -8.5427   -5.5599  -25.7862 C   0  0  0  0  0  0  0  0  0  0  0  0
   -9.0518   -5.4410  -24.3487 C   0  0  1  0  0  0  0  0  0  0  0  0
   -8.0074   -5.8665  -23.3202 C   0  0  0  0  0  0  0  0  0  0  0  0
   -6.9236   -4.8246  -23.1049 C   0  0  0  0  0  0  0  0  0  0  0  0
   -7.5125   -3.5415  -22.7128 N   0  0  0  0  0  0  0  0  0  0  0  0
   -6.7557   -2.7454  -21.8642 C   0  0  0  0  0  0  0  0  0  0  0  0
   -5.6181   -3.0526  -21.5562 O   0  0  0  0  0  0  0  0  0  0  0  0
   -7.4124   -1.4746  -21.2689 C   0  0  0  0  0  0  0  0  0  0  0  0
   -6.5785   -0.8317  -20.1825 C   0  0  0  0  0  0  0  0  0  0  0  0
   -6.8751   -1.0449  -18.8628 C   0  0  0  0  0  0  0  0  0  0  0  0
   -6.1939   -0.5386  -17.7986 N   0  0  0  0  0  0  0  0  0  0  0  0
   -5.1585    0.2186  -18.0666 C   0  0  0  0  0  0  0  0  0  0  0  0
   -4.7208    0.5280  -19.3807 C   0  0  0  0  0  0  0  0  0  0  0  0
   -3.5929    1.3551  -19.6217 C   0  0  0  0  0  0  0  0  0  0  0  0
   -3.1905    1.6314  -20.9002 C   0  0  0  0  0  0  0  0  0  0  0  0
   -3.9006    1.0871  -21.9928 C   0  0  0  0  0  0  0  0  0  0  0  0
   -4.9965    0.2856  -21.7857 C   0  0  0  0  0  0  0  0  0  0  0  0
   -5.4439   -0.0145  -20.4738 C   0  0  0  0  0  0  0  0  0  0  0  0
   -5.5297   -0.1264  -22.6360 H   0  0  0  0  0  0  0  0  0  0  0  0
   -3.5789    1.3151  -23.0050 H   0  0  0  0  0  0  0  0  0  0  0  0
   -2.3307    2.2720  -21.0873 H   0  0  0  0  0  0  0  0  0  0  0  0
   -3.0552    1.7686  -18.7716 H   0  0  0  0  0  0  0  0  0  0  0  0
   -4.6044    0.6249  -17.2170 H   0  0  0  0  0  0  0  0  0  0  0  0
   -7.7219   -1.6703  -18.5854 H   0  0  0  0  0  0  0  0  0  0  0  0
   -7.6213   -0.7474  -22.0671 H   0  0  0  0  0  0  0  0  0  0  0  0
   -8.3930   -1.7507  -20.8541 H   0  0  0  0  0  0  0  0  0  0  0  0
   -8.5391   -2.9955  -23.6122 C   0  0  1  0  0  0  0  0  0  0  0  0
   -7.9410   -2.2907  -24.8399 C   0  0  0  0  0  0  0  0  0  0  0  0
   -8.7283   -1.9760  -25.5353 H   0  0  0  0  0  0  0  0  0  0  0  0
   -7.2482   -2.9316  -25.3940 H   0  0  0  0  0  0  0  0  0  0  0  0
   -7.3901   -1.3881  -24.5499 H   0  0  0  0  0  0  0  0  0  0  0  0
   -9.5876   -4.0617  -23.9661 C   0  0  0  0  0  0  0  0  0  0  0  0
  -10.2094   -3.6824  -24.7835 H   0  0  0  0  0  0  0  0  0  0  0  0
  -10.2614   -4.1739  -23.1089 H   0  0  0  0  0  0  0  0  0  0  0  0
   -9.0796   -2.2353  -23.0426 H   0  0  0  0  0  0  0  0  0  0  0  0
   -6.2869   -4.7465  -23.9956 H   0  0  0  0  0  0  0  0  0  0  0  0
   -6.2717   -5.1435  -22.2932 H   0  0  0  0  0  0  0  0  0  0  0  0
   -7.5710   -6.8272  -23.6144 H   0  0  0  0  0  0  0  0  0  0  0  0
   -8.4557   -6.0089  -22.3383 H   0  0  0  0  0  0  0  0  0  0  0  0
   -9.9025   -6.1282  -24.2977 H   0  0  0  0  0  0  0  0  0  0  0  0
   -7.5960   -5.0377  -25.9438 H   0  0  0  0  0  0  0  0  0  0  0  0
   -8.3803   -6.6131  -26.0491 H   0  0  0  0  0  0  0  0  0  0  0  0
   -9.2684   -5.1514  -26.4981 H   0  0  0  0  0  0  0  0  0  0  0  0
  1  2  1  0
  2  3  1  0
  3  4  1  0
  4  5  1  0
  5  6  1  0
  6  7  2  0
  6  8  1  0
  8  9  1  0
  9 10  2  0
 10 11  1  0
 11 12  2  0
 12 13  1  0
 13 14  2  0
 14 15  1  0
 15 16  2  0
 16 17  1  0
 17 18  2  0
 17 19  1  0
 16 20  1  0
 15 21  1  0
 14 22  1  0
 12 23  1  0
 10 24  1  0
  8 25  1  0
  8 26  1  0
  5 27  1  0
 27 28  1  0
 28 29  1  0
 28 30  1  0
 28 31  1  0
 27 32  1  0
 32 33  1  0
 32 34  1  0
 27 35  1  1
  4 36  1  0
  4 37  1  0
  3 38  1  0
  3 39  1  0
  2 40  1  6
  1 41  1  0
  1 42  1  0
  1 43  1  0
 32  2  1  0
 18  9  1  0
 18 13  1  0
M  END
>  <cnnaffinities>  (84) 
[4.77633, 4.86411, 4.75312, 4.54656]

>  <score>  (84) 
4.77633

>  <index>  (84) 
86

>  <Smiles>  (84) 
C([C@]1(C(C(N(C(=O)C(c2c(nc(c3c(c(c(c(c23)[H])[H])[H])[H])[H])[H])([H])[H])[C@@](C([H])([H])[H])(C1([H])[H])[H])([H])[H])([H])[H])[H])([H])([H])[H]

>  <h>  (84) 
<NA>

>  <Training>  (84) 
True

>  <Success>  (84) 
True

>  <enamine_searched>  (84) 
False

>  <enamine_id>  (84) 
nan

$$$$

     RDKit          3D

 59 64  0  0  0  0  0  0  0  0999 V2000
   -7.8693   -3.6829  -24.0565 C   0  0  0  0  0  0  0  0  0  0  0  0
   -8.2699   -2.8882  -22.8069 C   0  0  1  0  0  0  0  0  0  0  0  0
   -7.0700   -2.6406  -21.8668 C   0  0  0  0  0  0  0  0  0  0  0  0
   -7.3980   -1.3977  -21.1995 N   0  0  0  0  0  0  0  0  0  0  0  0
   -6.6020   -0.8159  -20.1740 C   0  0  0  0  0  0  0  0  0  0  0  0
   -6.9080   -1.0437  -18.8585 C   0  0  0  0  0  0  0  0  0  0  0  0
   -6.2061   -0.5451  -17.8076 N   0  0  0  0  0  0  0  0  0  0  0  0
   -5.1674    0.2058  -18.0789 C   0  0  0  0  0  0  0  0  0  0  0  0
   -4.7305    0.5253  -19.3966 C   0  0  0  0  0  0  0  0  0  0  0  0
   -3.6019    1.3558  -19.6388 C   0  0  0  0  0  0  0  0  0  0  0  0
   -3.2106    1.6425  -20.9164 C   0  0  0  0  0  0  0  0  0  0  0  0
   -3.9256    1.1056  -22.0125 C   0  0  0  0  0  0  0  0  0  0  0  0
   -5.0219    0.3029  -21.8039 C   0  0  0  0  0  0  0  0  0  0  0  0
   -5.4620   -0.0046  -20.4861 C   0  0  0  0  0  0  0  0  0  0  0  0
   -5.5711   -0.0830  -22.6579 H   0  0  0  0  0  0  0  0  0  0  0  0
   -3.6158    1.3461  -23.0234 H   0  0  0  0  0  0  0  0  0  0  0  0
   -2.3610    2.2930  -21.1019 H   0  0  0  0  0  0  0  0  0  0  0  0
   -3.0683    1.7644  -18.7842 H   0  0  0  0  0  0  0  0  0  0  0  0
   -4.6170    0.6108  -17.2279 H   0  0  0  0  0  0  0  0  0  0  0  0
   -7.7584   -1.6688  -18.5983 H   0  0  0  0  0  0  0  0  0  0  0  0
   -8.4257   -0.6950  -21.7884 C   0  0  0  0  0  0  0  0  0  0  0  0
   -8.8586    0.3534  -21.3575 O   0  0  0  0  0  0  0  0  0  0  0  0
   -8.9238   -1.4820  -23.0312 C   0  0  1  0  0  0  0  0  0  0  0  0
   -8.4079   -0.8384  -24.3451 C   0  0  0  0  0  0  0  0  0  0  0  0
   -9.0498    0.4281  -24.6381 N   0  0  0  0  0  0  0  0  0  0  0  0
   -8.2948    1.5129  -25.2453 C   0  0  0  0  0  0  0  0  0  0  0  0
   -8.1798    2.7197  -24.3552 C   0  0  0  0  0  0  0  0  0  0  0  0
   -7.5945    2.8432  -23.1106 C   0  0  0  0  0  0  0  0  0  0  0  0
   -7.8169    4.1872  -22.7378 C   0  0  0  0  0  0  0  0  0  0  0  0
   -8.4523    4.8480  -23.6960 N   0  0  0  0  0  0  0  0  0  0  0  0
   -8.6540    3.9512  -24.6678 N   0  0  0  0  0  0  0  0  0  0  0  0
   -9.2996    4.3865  -25.8897 C   0  0  0  0  0  0  0  0  0  0  0  0
  -10.1993    3.7874  -26.0574 H   0  0  0  0  0  0  0  0  0  0  0  0
   -8.6090    4.2964  -26.7386 H   0  0  0  0  0  0  0  0  0  0  0  0
   -9.5466    5.4402  -25.7330 H   0  0  0  0  0  0  0  0  0  0  0  0
   -7.5885    4.7227  -21.8221 H   0  0  0  0  0  0  0  0  0  0  0  0
   -7.0995    2.0458  -22.5712 H   0  0  0  0  0  0  0  0  0  0  0  0
   -8.7404    1.7729  -26.2136 H   0  0  0  0  0  0  0  0  0  0  0  0
   -7.2899    1.1259  -25.4299 H   0  0  0  0  0  0  0  0  0  0  0  0
  -10.4037    0.5694  -24.5721 C   0  0  0  0  0  0  0  0  0  0  0  0
  -10.9786    1.5252  -25.0835 O   0  0  0  0  0  0  0  0  0  0  0  0
  -11.1377   -0.4943  -23.8079 C   0  0  0  0  0  0  0  0  0  0  0  0
  -12.5339   -0.4594  -23.8033 C   0  0  0  0  0  0  0  0  0  0  0  0
  -13.2555   -1.3253  -23.0055 C   0  0  0  0  0  0  0  0  0  0  0  0
  -12.5553   -2.2024  -22.1857 C   0  0  0  0  0  0  0  0  0  0  0  0
  -13.2489   -3.0060  -21.3634 F   0  0  0  0  0  0  0  0  0  0  0  0
  -11.1778   -2.2691  -22.1795 C   0  0  0  0  0  0  0  0  0  0  0  0
  -10.4436   -1.4499  -23.0469 C   0  0  0  0  0  0  0  0  0  0  0  0
  -10.7089   -2.9422  -21.4697 H   0  0  0  0  0  0  0  0  0  0  0  0
  -14.3381   -1.3186  -22.9740 H   0  0  0  0  0  0  0  0  0  0  0  0
  -13.0250    0.2831  -24.4229 H   0  0  0  0  0  0  0  0  0  0  0  0
   -8.5761   -1.5457  -25.1726 H   0  0  0  0  0  0  0  0  0  0  0  0
   -7.3301   -0.6633  -24.2434 H   0  0  0  0  0  0  0  0  0  0  0  0
   -6.1297   -2.5559  -22.4352 H   0  0  0  0  0  0  0  0  0  0  0  0
   -6.9354   -3.4437  -21.1317 H   0  0  0  0  0  0  0  0  0  0  0  0
   -9.0072   -3.4763  -22.2544 H   0  0  0  0  0  0  0  0  0  0  0  0
   -8.7115   -3.8231  -24.7439 H   0  0  0  0  0  0  0  0  0  0  0  0
   -7.0685   -3.1764  -24.6104 H   0  0  0  0  0  0  0  0  0  0  0  0
   -7.4944   -4.6757  -23.7822 H   0  0  0  0  0  0  0  0  0  0  0  0
  1  2  1  0
  2  3  1  0
  3  4  1  0
  4  5  1  0
  5  6  2  0
  6  7  1  0
  7  8  2  0
  8  9  1  0
  9 10  2  0
 10 11  1  0
 11 12  2  0
 12 13  1  0
 13 14  2  0
 13 15  1  0
 12 16  1  0
 11 17  1  0
 10 18  1  0
  8 19  1  0
  6 20  1  0
  4 21  1  0
 21 22  2  0
 21 23  1  0
 23 24  1  6
 24 25  1  0
 25 26  1  0
 26 27  1  0
 27 28  2  0
 28 29  1  0
 29 30  2  0
 30 31  1  0
 31 32  1  0
 32 33  1  0
 32 34  1  0
 32 35  1  0
 29 36  1  0
 28 37  1  0
 26 38  1  0
 26 39  1  0
 25 40  1  0
 40 41  2  0
 40 42  1  0
 42 43  2  0
 43 44  1  0
 44 45  2  0
 45 46  1  0
 45 47  1  0
 47 48  2  0
 47 49  1  0
 44 50  1  0
 43 51  1  0
 24 52  1  0
 24 53  1  0
  3 54  1  0
  3 55  1  0
  2 56  1  1
  1 57  1  0
  1 58  1  0
  1 59  1  0
 23  2  1  0
 31 27  1  0
 48 42  1  0
 14  5  1  0
 48 23  1  0
 14  9  1  0
M  END
>  <cnnaffinities>  (85) 
[6.57186, 6.36774]

>  <score>  (85) 
6.57186

>  <index>  (85) 
87

>  <Smiles>  (85) 
C([C@]1(C(N(c2c(nc(c3c(c(c(c(c23)[H])[H])[H])[H])[H])[H])C(=O)[C@]21C(N(C(c1c(c(nn1C([H])([H])[H])[H])[H])([H])[H])C(=O)c1c(c(c(F)c(c21)[H])[H])[H])([H])[H])([H])[H])[H])([H])([H])[H]

>  <h>  (85) 
<NA>

>  <Training>  (85) 
True

>  <Success>  (85) 
True

>  <enamine_searched>  (85) 
False

>  <enamine_id>  (85) 
nan

$$$$

     RDKit          3D

 40 42  0  0  0  0  0  0  0  0999 V2000
   -9.1788    0.2230  -21.0718 O   0  0  0  0  0  0  0  0  0  0  0  0
   -8.3761   -0.3101  -21.8054 C   0  0  0  0  0  0  0  0  0  0  0  0
   -7.4432   -1.4100  -21.2726 C   0  0  0  0  0  0  0  0  0  0  0  0
   -6.5701   -0.8354  -20.1745 C   0  0  0  0  0  0  0  0  0  0  0  0
   -6.8782   -1.0393  -18.8550 C   0  0  0  0  0  0  0  0  0  0  0  0
   -6.1958   -0.5309  -17.7930 N   0  0  0  0  0  0  0  0  0  0  0  0
   -5.1561    0.2195  -18.0653 C   0  0  0  0  0  0  0  0  0  0  0  0
   -4.7217    0.5326  -19.3805 C   0  0  0  0  0  0  0  0  0  0  0  0
   -3.6008    1.3670  -19.6236 C   0  0  0  0  0  0  0  0  0  0  0  0
   -3.2122    1.6611  -20.9019 C   0  0  0  0  0  0  0  0  0  0  0  0
   -3.9305    1.1275  -21.9953 C   0  0  0  0  0  0  0  0  0  0  0  0
   -5.0179    0.3149  -21.7863 C   0  0  0  0  0  0  0  0  0  0  0  0
   -5.4489   -0.0034  -20.4718 C   0  0  0  0  0  0  0  0  0  0  0  0
   -5.5562   -0.0826  -22.6397 H   0  0  0  0  0  0  0  0  0  0  0  0
   -3.6180    1.3699  -23.0077 H   0  0  0  0  0  0  0  0  0  0  0  0
   -2.3600    2.3114  -21.0860 H   0  0  0  0  0  0  0  0  0  0  0  0
   -3.0610    1.7757  -18.7731 H   0  0  0  0  0  0  0  0  0  0  0  0
   -4.6025    0.6245  -17.2160 H   0  0  0  0  0  0  0  0  0  0  0  0
   -7.7295   -1.6603  -18.5807 H   0  0  0  0  0  0  0  0  0  0  0  0
   -6.8355   -1.8453  -22.0753 H   0  0  0  0  0  0  0  0  0  0  0  0
   -8.0694   -2.2019  -20.8454 H   0  0  0  0  0  0  0  0  0  0  0  0
   -8.1737    0.0966  -23.1291 N   0  0  0  0  0  0  0  0  0  0  0  0
   -8.2702   -0.8155  -24.2629 C   0  0  0  0  0  0  0  0  0  0  0  0
   -7.2922   -0.4221  -25.3617 C   0  0  0  0  0  0  0  0  0  0  0  0
   -7.4915    1.0401  -25.7572 C   0  0  0  0  0  0  0  0  0  0  0  0
   -6.5116    1.4796  -26.8286 C   0  0  0  0  0  0  0  0  0  0  0  0
   -6.6484    0.7111  -27.9496 F   0  0  0  0  0  0  0  0  0  0  0  0
   -5.2273    1.3145  -26.3877 F   0  0  0  0  0  0  0  0  0  0  0  0
   -6.6293    2.5316  -27.1285 H   0  0  0  0  0  0  0  0  0  0  0  0
   -7.4043    1.9416  -24.5285 C   0  0  0  0  0  0  0  0  0  0  0  0
   -8.3893    1.5018  -23.4507 C   0  0  0  0  0  0  0  0  0  0  0  0
   -9.4199    1.7039  -23.7799 H   0  0  0  0  0  0  0  0  0  0  0  0
   -8.2383    2.0757  -22.5376 H   0  0  0  0  0  0  0  0  0  0  0  0
   -7.5942    2.9815  -24.8123 H   0  0  0  0  0  0  0  0  0  0  0  0
   -6.3850    1.9158  -24.1260 H   0  0  0  0  0  0  0  0  0  0  0  0
   -8.4834    1.1501  -26.2146 H   0  0  0  0  0  0  0  0  0  0  0  0
   -6.2701   -0.5630  -24.9982 H   0  0  0  0  0  0  0  0  0  0  0  0
   -7.4157   -1.0716  -26.2344 H   0  0  0  0  0  0  0  0  0  0  0  0
   -9.2902   -0.8238  -24.6864 H   0  0  0  0  0  0  0  0  0  0  0  0
   -8.0779   -1.8273  -23.9105 H   0  0  0  0  0  0  0  0  0  0  0  0
  1  2  2  0
  2  3  1  0
  3  4  1  0
  4  5  2  0
  5  6  1  0
  6  7  2  0
  7  8  1  0
  8  9  2  0
  9 10  1  0
 10 11  2  0
 11 12  1  0
 12 13  2  0
 12 14  1  0
 11 15  1  0
 10 16  1  0
  9 17  1  0
  7 18  1  0
  5 19  1  0
  3 20  1  0
  3 21  1  0
  2 22  1  0
 22 23  1  0
 23 24  1  0
 24 25  1  0
 25 26  1  0
 26 27  1  0
 26 28  1  0
 26 29  1  0
 25 30  1  0
 30 31  1  0
 31 32  1  0
 31 33  1  0
 30 34  1  0
 30 35  1  0
 25 36  1  0
 24 37  1  0
 24 38  1  0
 23 39  1  0
 23 40  1  0
 13  4  1  0
 31 22  1  0
 13  8  1  0
M  END
>  <cnnaffinities>  (86) 
[4.78746, 4.77532, 4.77533, 4.78095, 4.78181, 4.77943, 4.71665, 4.71672, 4.65003, 4.77334, 4.72422, 4.72426, 4.55053, 4.55069, 4.71799, 4.70895, 4.70895]

>  <score>  (86) 
4.78746

>  <index>  (86) 
88

>  <Smiles>  (86) 
O=C(C(c1c(nc(c2c(c(c(c(c12)[H])[H])[H])[H])[H])[H])([H])[H])N1C(C(C(C(F)(F)[H])(C(C1([H])[H])([H])[H])[H])([H])[H])([H])[H]

>  <h>  (86) 
<NA>

>  <Training>  (86) 
True

>  <Success>  (86) 
True

>  <enamine_searched>  (86) 
False

>  <enamine_id>  (86) 
nan

$$$$

     RDKit          3D

 43 45  0  0  0  0  0  0  0  0999 V2000
   -9.7528   -4.1872  -25.8457 C   0  0  0  0  0  0  0  0  0  0  0  0
   -8.2267   -4.2041  -25.7065 C   0  0  0  0  0  0  0  0  0  0  0  0
   -7.6338   -4.8424  -26.9678 C   0  0  0  0  0  0  0  0  0  0  0  0
   -8.0336   -5.8504  -27.1260 H   0  0  0  0  0  0  0  0  0  0  0  0
   -7.8641   -4.2554  -27.8638 H   0  0  0  0  0  0  0  0  0  0  0  0
   -6.5441   -4.9313  -26.9024 H   0  0  0  0  0  0  0  0  0  0  0  0
   -7.6878   -2.7678  -25.5713 C   0  0  0  0  0  0  0  0  0  0  0  0
   -7.7326   -2.2024  -24.1512 C   0  0  0  0  0  0  0  0  0  0  0  0
   -7.0445   -3.0684  -23.2000 N   0  0  0  0  0  0  0  0  0  0  0  0
   -6.6942   -2.6850  -21.9282 C   0  0  0  0  0  0  0  0  0  0  0  0
   -5.8687   -3.3133  -21.2815 O   0  0  0  0  0  0  0  0  0  0  0  0
   -7.3944   -1.4611  -21.2860 C   0  0  0  0  0  0  0  0  0  0  0  0
   -6.5755   -0.8296  -20.1808 C   0  0  0  0  0  0  0  0  0  0  0  0
   -6.8725   -1.0460  -18.8603 C   0  0  0  0  0  0  0  0  0  0  0  0
   -6.1925   -0.5370  -17.7935 N   0  0  0  0  0  0  0  0  0  0  0  0
   -5.1584    0.2197  -18.0632 C   0  0  0  0  0  0  0  0  0  0  0  0
   -4.7199    0.5318  -19.3782 C   0  0  0  0  0  0  0  0  0  0  0  0
   -3.5927    1.3585  -19.6226 C   0  0  0  0  0  0  0  0  0  0  0  0
   -3.1928    1.6368  -20.8998 C   0  0  0  0  0  0  0  0  0  0  0  0
   -3.9072    1.0943  -21.9937 C   0  0  0  0  0  0  0  0  0  0  0  0
   -5.0014    0.2951  -21.7850 C   0  0  0  0  0  0  0  0  0  0  0  0
   -5.4453   -0.0080  -20.4720 C   0  0  0  0  0  0  0  0  0  0  0  0
   -5.5392   -0.1069  -22.6402 H   0  0  0  0  0  0  0  0  0  0  0  0
   -3.5881    1.3249  -23.0052 H   0  0  0  0  0  0  0  0  0  0  0  0
   -2.3338    2.2760  -21.0898 H   0  0  0  0  0  0  0  0  0  0  0  0
   -3.0510    1.7708  -18.7731 H   0  0  0  0  0  0  0  0  0  0  0  0
   -4.6009    0.6266  -17.2157 H   0  0  0  0  0  0  0  0  0  0  0  0
   -7.7212   -1.6714  -18.5874 H   0  0  0  0  0  0  0  0  0  0  0  0
   -8.3338   -1.8264  -20.8466 H   0  0  0  0  0  0  0  0  0  0  0  0
   -7.6866   -0.7018  -22.0223 H   0  0  0  0  0  0  0  0  0  0  0  0
   -6.6846   -4.4083  -23.6633 C   0  0  0  0  0  0  0  0  0  0  0  0
   -7.8331   -5.0235  -24.4567 C   0  0  0  0  0  0  0  0  0  0  0  0
   -7.5787   -6.0468  -24.7499 H   0  0  0  0  0  0  0  0  0  0  0  0
   -8.6883   -5.1210  -23.7798 H   0  0  0  0  0  0  0  0  0  0  0  0
   -6.4509   -5.0182  -22.7932 H   0  0  0  0  0  0  0  0  0  0  0  0
   -5.7711   -4.3824  -24.2699 H   0  0  0  0  0  0  0  0  0  0  0  0
   -8.7718   -2.0377  -23.8458 H   0  0  0  0  0  0  0  0  0  0  0  0
   -7.2552   -1.2159  -24.1668 H   0  0  0  0  0  0  0  0  0  0  0  0
   -8.2548   -2.1085  -26.2351 H   0  0  0  0  0  0  0  0  0  0  0  0
   -6.6580   -2.7137  -25.9424 H   0  0  0  0  0  0  0  0  0  0  0  0
  -10.2279   -3.6999  -24.9888 H   0  0  0  0  0  0  0  0  0  0  0  0
  -10.1578   -5.2028  -25.9154 H   0  0  0  0  0  0  0  0  0  0  0  0
  -10.0656   -3.6496  -26.7477 H   0  0  0  0  0  0  0  0  0  0  0  0
  1  2  1  0
  2  3  1  0
  3  4  1  0
  3  5  1  0
  3  6  1  0
  2  7  1  0
  7  8  1  0
  8  9  1  0
  9 10  1  0
 10 11  2  0
 10 12  1  0
 12 13  1  0
 13 14  2  0
 14 15  1  0
 15 16  2  0
 16 17  1  0
 17 18  2  0
 18 19  1  0
 19 20  2  0
 20 21  1  0
 21 22  2  0
 21 23  1  0
 20 24  1  0
 19 25  1  0
 18 26  1  0
 16 27  1  0
 14 28  1  0
 12 29  1  0
 12 30  1  0
  9 31  1  0
 31 32  1  0
 32 33  1  0
 32 34  1  0
 31 35  1  0
 31 36  1  0
  8 37  1  0
  8 38  1  0
  7 39  1  0
  7 40  1  0
  1 41  1  0
  1 42  1  0
  1 43  1  0
 32  2  1  0
 22 13  1  0
 22 17  1  0
M  END
>  <cnnaffinities>  (87) 
[4.67984, 4.79352, 4.79351, 4.79351, 4.79349, 4.65341, 4.65343, 4.65344]

>  <score>  (87) 
4.67984

>  <index>  (87) 
89

>  <Smiles>  (87) 
C(C1(C([H])([H])[H])C(C(N(C(=O)C(c2c(nc(c3c(c(c(c(c23)[H])[H])[H])[H])[H])[H])([H])[H])C(C1([H])[H])([H])[H])([H])[H])([H])[H])([H])([H])[H]

>  <h>  (87) 
<NA>

>  <Training>  (87) 
True

>  <Success>  (87) 
True

>  <enamine_searched>  (87) 
False

>  <enamine_id>  (87) 
nan

$$$$

     RDKit          3D

 64 68  0  0  0  0  0  0  0  0999 V2000
   -7.7908    2.9138  -22.2250 C   0  0  0  0  0  0  0  0  0  0  0  0
   -8.7246    2.4112  -23.2043 N   0  0  0  0  0  0  0  0  0  0  0  0
   -8.2752    1.8604  -24.3526 C   0  0  0  0  0  0  0  0  0  0  0  0
   -7.0939    1.8232  -24.6610 O   0  0  0  0  0  0  0  0  0  0  0  0
   -9.3673    1.1902  -25.1882 C   0  0  0  0  0  0  0  0  0  0  0  0
   -9.9117    0.0568  -24.4596 N   0  0  0  0  0  0  0  0  0  0  0  0
   -8.9878   -1.0153  -24.1485 C   0  0  0  0  0  0  0  0  0  0  0  0
   -9.2513   -1.7159  -22.7830 C   0  0  2  0  0  0  0  0  0  0  0  0
   -8.7116   -0.8313  -21.6271 C   0  0  0  0  0  0  0  0  0  0  0  0
   -9.2615    0.1325  -21.1342 O   0  0  0  0  0  0  0  0  0  0  0  0
   -7.4822   -1.3217  -21.2399 N   0  0  0  0  0  0  0  0  0  0  0  0
   -6.7090   -0.7537  -20.1933 C   0  0  0  0  0  0  0  0  0  0  0  0
   -7.0192   -1.0030  -18.8805 C   0  0  0  0  0  0  0  0  0  0  0  0
   -6.2977   -0.5551  -17.8206 N   0  0  0  0  0  0  0  0  0  0  0  0
   -5.2288    0.1590  -18.0785 C   0  0  0  0  0  0  0  0  0  0  0  0
   -4.7858    0.4945  -19.3915 C   0  0  0  0  0  0  0  0  0  0  0  0
   -3.6264    1.2848  -19.6256 C   0  0  0  0  0  0  0  0  0  0  0  0
   -3.2464    1.5986  -20.9019 C   0  0  0  0  0  0  0  0  0  0  0  0
   -4.0030    1.1444  -22.0038 C   0  0  0  0  0  0  0  0  0  0  0  0
   -5.1283    0.3806  -21.8007 C   0  0  0  0  0  0  0  0  0  0  0  0
   -5.5473    0.0285  -20.4886 C   0  0  0  0  0  0  0  0  0  0  0  0
   -5.7456    0.1119  -22.6525 H   0  0  0  0  0  0  0  0  0  0  0  0
   -3.7149    1.4232  -23.0135 H   0  0  0  0  0  0  0  0  0  0  0  0
   -2.3722    2.2181  -21.0803 H   0  0  0  0  0  0  0  0  0  0  0  0
   -3.0589    1.6442  -18.7706 H   0  0  0  0  0  0  0  0  0  0  0  0
   -4.6526    0.5179  -17.2239 H   0  0  0  0  0  0  0  0  0  0  0  0
   -7.8871   -1.6131  -18.6435 H   0  0  0  0  0  0  0  0  0  0  0  0
   -7.0382   -2.4732  -21.9920 C   0  0  0  0  0  0  0  0  0  0  0  0
   -8.3473   -2.9714  -22.6305 C   0  0  2  0  0  0  0  0  0  0  0  0
   -8.1472   -3.7629  -23.9135 C   0  0  0  0  0  0  0  0  0  0  0  0
   -7.2856   -5.2980  -23.6701 S   0  0  0  0  0  0  0  0  0  0  0  0
   -5.8892   -5.0227  -23.3531 O   0  0  0  0  0  0  0  0  0  0  0  0
   -8.0779   -6.1545  -22.7986 O   0  0  0  0  0  0  0  0  0  0  0  0
   -7.2944   -5.8681  -25.2247 N   0  0  0  0  0  0  0  0  0  0  0  0
   -8.5150   -6.4290  -25.7792 C   0  0  0  0  0  0  0  0  0  0  0  0
   -9.1677   -5.6236  -26.1325 H   0  0  0  0  0  0  0  0  0  0  0  0
   -8.2654   -7.0602  -26.6354 H   0  0  0  0  0  0  0  0  0  0  0  0
   -9.0578   -7.0201  -25.0374 H   0  0  0  0  0  0  0  0  0  0  0  0
   -6.4180   -6.3338  -25.4278 H   0  0  0  0  0  0  0  0  0  0  0  0
   -7.5431   -3.2158  -24.6402 H   0  0  0  0  0  0  0  0  0  0  0  0
   -9.1104   -4.0005  -24.3728 H   0  0  0  0  0  0  0  0  0  0  0  0
   -8.8175   -3.6343  -21.9023 H   0  0  0  0  0  0  0  0  0  0  0  0
   -6.5866   -3.2125  -21.3258 H   0  0  0  0  0  0  0  0  0  0  0  0
   -6.2773   -2.2109  -22.7450 H   0  0  0  0  0  0  0  0  0  0  0  0
  -10.7474   -1.9509  -22.6362 C   0  0  0  0  0  0  0  0  0  0  0  0
  -11.2895   -2.9878  -21.8648 C   0  0  0  0  0  0  0  0  0  0  0  0
  -12.6541   -3.0401  -21.6487 C   0  0  0  0  0  0  0  0  0  0  0  0
  -13.1469   -4.0315  -20.8896 F   0  0  0  0  0  0  0  0  0  0  0  0
  -13.5480   -2.1094  -22.1601 C   0  0  0  0  0  0  0  0  0  0  0  0
  -13.0227   -1.0955  -22.9274 C   0  0  0  0  0  0  0  0  0  0  0  0
  -11.6528   -1.0218  -23.1722 C   0  0  0  0  0  0  0  0  0  0  0  0
  -11.1864    0.1331  -23.9935 C   0  0  0  0  0  0  0  0  0  0  0  0
  -11.9026    1.1020  -24.2240 O   0  0  0  0  0  0  0  0  0  0  0  0
  -13.6553   -0.3201  -23.3401 H   0  0  0  0  0  0  0  0  0  0  0  0
  -14.6074   -2.1971  -21.9393 H   0  0  0  0  0  0  0  0  0  0  0  0
  -10.6835   -3.7552  -21.3968 H   0  0  0  0  0  0  0  0  0  0  0  0
   -7.9867   -0.5745  -24.1553 H   0  0  0  0  0  0  0  0  0  0  0  0
   -9.0220   -1.7428  -24.9620 H   0  0  0  0  0  0  0  0  0  0  0  0
  -10.2007    1.8718  -25.3662 H   0  0  0  0  0  0  0  0  0  0  0  0
   -8.9062    0.8979  -26.1360 H   0  0  0  0  0  0  0  0  0  0  0  0
   -9.6672    2.2128  -22.9124 H   0  0  0  0  0  0  0  0  0  0  0  0
   -7.4877    3.9493  -22.4388 H   0  0  0  0  0  0  0  0  0  0  0  0
   -6.9067    2.2702  -22.2241 H   0  0  0  0  0  0  0  0  0  0  0  0
   -8.2436    2.8598  -21.2339 H   0  0  0  0  0  0  0  0  0  0  0  0
  1  2  1  0
  2  3  1  0
  3  4  2  0
  3  5  1  0
  5  6  1  0
  6  7  1  0
  8  7  1  6
  8  9  1  0
  9 10  2  0
  9 11  1  0
 11 12  1  0
 12 13  2  0
 13 14  1  0
 14 15  2  0
 15 16  1  0
 16 17  2  0
 17 18  1  0
 18 19  2  0
 19 20  1  0
 20 21  2  0
 20 22  1  0
 19 23  1  0
 18 24  1  0
 17 25  1  0
 15 26  1  0
 13 27  1  0
 11 28  1  0
 28 29  1  0
 29 30  1  0
 30 31  1  0
 31 32  2  0
 31 33  2  0
 31 34  1  0
 34 35  1  0
 35 36  1  0
 35 37  1  0
 35 38  1  0
 34 39  1  0
 30 40  1  0
 30 41  1  0
 29 42  1  1
 28 43  1  0
 28 44  1  0
  8 45  1  0
 45 46  2  0
 46 47  1  0
 47 48  1  0
 47 49  2  0
 49 50  1  0
 50 51  2  0
 51 52  1  0
 52 53  2  0
 50 54  1  0
 49 55  1  0
 46 56  1  0
  7 57  1  0
  7 58  1  0
  5 59  1  0
  5 60  1  0
  2 61  1  0
  1 62  1  0
  1 63  1  0
  1 64  1  0
 52  6  1  0
 29  8  1  0
 51 45  1  0
 21 12  1  0
 21 16  1  0
M  END
>  <cnnaffinities>  (88) 
[6.57754, 6.80078]

>  <score>  (88) 
6.57754

>  <index>  (88) 
90

>  <Smiles>  (88) 
C(N(C(=O)C(N1C([C@@]2(C(=O)N(c3c(nc(c4c(c(c(c(c34)[H])[H])[H])[H])[H])[H])C([C@@]2(C(S(=O)(=O)N(C([H])([H])[H])[H])([H])[H])[H])([H])[H])c2c(c(F)c(c(c2C1=O)[H])[H])[H])([H])[H])([H])[H])[H])([H])([H])[H]

>  <h>  (88) 
<NA>

>  <Training>  (88) 
True

>  <Success>  (88) 
True

>  <enamine_searched>  (88) 
False

>  <enamine_id>  (88) 
nan

$$$$

     RDKit          3D

 66 71  0  0  0  0  0  0  0  0999 V2000
   -7.7594    3.0438  -22.2387 C   0  0  0  0  0  0  0  0  0  0  0  0
   -8.7930    2.5820  -23.1289 N   0  0  0  0  0  0  0  0  0  0  0  0
   -8.4086    1.9004  -24.2318 C   0  0  0  0  0  0  0  0  0  0  0  0
   -7.2332    1.7488  -24.5364 O   0  0  0  0  0  0  0  0  0  0  0  0
   -9.5385    1.2620  -25.0313 C   0  0  0  0  0  0  0  0  0  0  0  0
  -10.0676    0.1122  -24.3198 N   0  0  0  0  0  0  0  0  0  0  0  0
   -9.1558   -0.9979  -24.1085 C   0  0  0  0  0  0  0  0  0  0  0  0
   -9.3699   -1.7385  -22.7527 C   0  0  2  0  0  0  0  0  0  0  0  0
   -8.7948   -0.8475  -21.6133 C   0  0  0  0  0  0  0  0  0  0  0  0
   -9.3308    0.1323  -21.1279 O   0  0  0  0  0  0  0  0  0  0  0  0
   -7.5489   -1.3219  -21.2619 N   0  0  0  0  0  0  0  0  0  0  0  0
   -6.7542   -0.7614  -20.2265 C   0  0  0  0  0  0  0  0  0  0  0  0
   -7.0509   -1.0288  -18.9130 C   0  0  0  0  0  0  0  0  0  0  0  0
   -6.3216   -0.5892  -17.8564 N   0  0  0  0  0  0  0  0  0  0  0  0
   -5.2564    0.1300  -18.1152 C   0  0  0  0  0  0  0  0  0  0  0  0
   -4.8198    0.4735  -19.4272 C   0  0  0  0  0  0  0  0  0  0  0  0
   -3.6611    1.2665  -19.6562 C   0  0  0  0  0  0  0  0  0  0  0  0
   -3.2842    1.5918  -20.9308 C   0  0  0  0  0  0  0  0  0  0  0  0
   -4.0457    1.1472  -22.0345 C   0  0  0  0  0  0  0  0  0  0  0  0
   -5.1728    0.3816  -21.8366 C   0  0  0  0  0  0  0  0  0  0  0  0
   -5.5876    0.0160  -20.5258 C   0  0  0  0  0  0  0  0  0  0  0  0
   -5.7886    0.1146  -22.6910 H   0  0  0  0  0  0  0  0  0  0  0  0
   -3.7566    1.4283  -23.0434 H   0  0  0  0  0  0  0  0  0  0  0  0
   -2.4108    2.2146  -21.1057 H   0  0  0  0  0  0  0  0  0  0  0  0
   -3.0957    1.6244  -18.7989 H   0  0  0  0  0  0  0  0  0  0  0  0
   -4.6774    0.4876  -17.2619 H   0  0  0  0  0  0  0  0  0  0  0  0
   -7.9145   -1.6451  -18.6723 H   0  0  0  0  0  0  0  0  0  0  0  0
   -7.1240   -2.4740  -22.0311 C   0  0  0  0  0  0  0  0  0  0  0  0
   -8.4408   -2.9888  -22.6365 C   0  0  2  0  0  0  0  0  0  0  0  0
   -8.2022   -3.7768  -23.9193 C   0  0  0  0  0  0  0  0  0  0  0  0
   -9.4522   -4.2734  -24.4335 N   0  0  0  0  0  0  0  0  0  0  0  0
   -9.5677   -4.9229  -25.6275 C   0  0  0  0  0  0  0  0  0  0  0  0
   -8.4271   -5.1806  -26.4256 C   0  0  0  0  0  0  0  0  0  0  0  0
   -8.5033   -5.8009  -27.5887 N   0  0  0  0  0  0  0  0  0  0  0  0
   -9.7233   -6.1948  -27.9722 C   0  0  0  0  0  0  0  0  0  0  0  0
  -10.8387   -5.9533  -27.1849 C   0  0  0  0  0  0  0  0  0  0  0  0
  -10.7824   -5.3101  -26.0156 N   0  0  0  0  0  0  0  0  0  0  0  0
  -11.8211   -6.2896  -27.5050 H   0  0  0  0  0  0  0  0  0  0  0  0
   -9.8004   -6.7098  -28.9249 H   0  0  0  0  0  0  0  0  0  0  0  0
   -7.4448   -4.8591  -26.0890 H   0  0  0  0  0  0  0  0  0  0  0  0
  -10.3228   -3.9835  -24.0079 H   0  0  0  0  0  0  0  0  0  0  0  0
   -7.5187   -4.6171  -23.7409 H   0  0  0  0  0  0  0  0  0  0  0  0
   -7.6871   -3.1310  -24.6525 H   0  0  0  0  0  0  0  0  0  0  0  0
   -8.8963   -3.6607  -21.9014 H   0  0  0  0  0  0  0  0  0  0  0  0
   -6.3909   -2.1978  -22.8094 H   0  0  0  0  0  0  0  0  0  0  0  0
   -6.6374   -3.2109  -21.3822 H   0  0  0  0  0  0  0  0  0  0  0  0
  -10.8675   -1.9659  -22.5580 C   0  0  0  0  0  0  0  0  0  0  0  0
  -11.4057   -3.0447  -21.8373 C   0  0  0  0  0  0  0  0  0  0  0  0
  -12.7574   -3.0593  -21.5078 C   0  0  0  0  0  0  0  0  0  0  0  0
  -13.4335   -4.3065  -20.5034 Cl  0  0  0  0  0  0  0  0  0  0  0  0
  -13.6373   -2.0684  -21.9346 C   0  0  0  0  0  0  0  0  0  0  0  0
  -13.1250   -1.0213  -22.6635 C   0  0  0  0  0  0  0  0  0  0  0  0
  -11.7705   -0.9770  -22.9875 C   0  0  0  0  0  0  0  0  0  0  0  0
  -11.3276    0.1880  -23.8112 C   0  0  0  0  0  0  0  0  0  0  0  0
  -12.0595    1.1506  -24.0104 O   0  0  0  0  0  0  0  0  0  0  0  0
  -13.7586   -0.2046  -22.9879 H   0  0  0  0  0  0  0  0  0  0  0  0
  -14.6967   -2.1459  -21.7065 H   0  0  0  0  0  0  0  0  0  0  0  0
  -10.7883   -3.8797  -21.5215 H   0  0  0  0  0  0  0  0  0  0  0  0
   -8.1571   -0.5593  -24.1125 H   0  0  0  0  0  0  0  0  0  0  0  0
   -9.2131   -1.6872  -24.9614 H   0  0  0  0  0  0  0  0  0  0  0  0
  -10.3762    1.9501  -25.1434 H   0  0  0  0  0  0  0  0  0  0  0  0
   -9.1353    0.9803  -26.0102 H   0  0  0  0  0  0  0  0  0  0  0  0
   -9.7026    2.3900  -22.7454 H   0  0  0  0  0  0  0  0  0  0  0  0
   -8.1846    3.4826  -21.3394 H   0  0  0  0  0  0  0  0  0  0  0  0
   -7.1201    2.2083  -21.9402 H   0  0  0  0  0  0  0  0  0  0  0  0
   -7.1338    3.7851  -22.7442 H   0  0  0  0  0  0  0  0  0  0  0  0
  1  2  1  0
  2  3  1  0
  3  4  2  0
  3  5  1  0
  5  6  1  0
  6  7  1  0
  8  7  1  6
  8  9  1  0
  9 10  2  0
  9 11  1  0
 11 12  1  0
 12 13  2  0
 13 14  1  0
 14 15  2  0
 15 16  1  0
 16 17  2  0
 17 18  1  0
 18 19  2  0
 19 20  1  0
 20 21  2  0
 20 22  1  0
 19 23  1  0
 18 24  1  0
 17 25  1  0
 15 26  1  0
 13 27  1  0
 11 28  1  0
 28 29  1  0
 29 30  1  0
 30 31  1  0
 31 32  1  0
 32 33  2  0
 33 34  1  0
 34 35  2  0
 35 36  1  0
 36 37  2  0
 36 38  1  0
 35 39  1  0
 33 40  1  0
 31 41  1  0
 30 42  1  0
 30 43  1  0
 29 44  1  1
 28 45  1  0
 28 46  1  0
  8 47  1  0
 47 48  2  0
 48 49  1  0
 49 50  1  0
 49 51  2  0
 51 52  1  0
 52 53  2  0
 53 54  1  0
 54 55  2  0
 52 56  1  0
 51 57  1  0
 48 58  1  0
  7 59  1  0
  7 60  1  0
  5 61  1  0
  5 62  1  0
  2 63  1  0
  1 64  1  0
  1 65  1  0
  1 66  1  0
 54  6  1  0
 29  8  1  0
 37 32  1  0
 53 47  1  0
 21 12  1  0
 21 16  1  0
M  END
>  <cnnaffinities>  (89) 
[6.55092]

>  <score>  (89) 
6.55092

>  <index>  (89) 
91

>  <Smiles>  (89) 
C(N(C(=O)C(N1C([C@@]2(C(=O)N(c3c(nc(c4c(c(c(c(c34)[H])[H])[H])[H])[H])[H])C([C@@]2(C(N(c2c(nc(c(n2)[H])[H])[H])[H])([H])[H])[H])([H])[H])c2c(c(Cl)c(c(c2C1=O)[H])[H])[H])([H])[H])([H])[H])[H])([H])([H])[H]

>  <h>  (89) 
<NA>

>  <Training>  (89) 
True

>  <Success>  (89) 
True

>  <enamine_searched>  (89) 
False

>  <enamine_id>  (89) 
nan

$$$$

     RDKit          3D

 60 65  0  0  0  0  0  0  0  0999 V2000
  -10.4642   -1.2875  -25.6490 C   0  0  0  0  0  0  0  0  0  0  0  0
  -10.9043   -1.7409  -24.4014 O   0  0  0  0  0  0  0  0  0  0  0  0
  -10.4218   -0.9763  -23.3206 C   0  0  0  0  0  0  0  0  0  0  0  0
   -9.0023   -1.3780  -22.9280 C   0  0  1  0  0  0  0  0  0  0  0  0
   -8.3868   -0.4556  -21.8713 C   0  0  0  0  0  0  0  0  0  0  0  0
   -7.4082   -1.3076  -21.2199 N   0  0  0  0  0  0  0  0  0  0  0  0
   -6.5831   -0.8403  -20.1706 C   0  0  0  0  0  0  0  0  0  0  0  0
   -6.8974   -1.1000  -18.8614 C   0  0  0  0  0  0  0  0  0  0  0  0
   -6.2302   -0.5711  -17.8030 N   0  0  0  0  0  0  0  0  0  0  0  0
   -5.2004    0.1978  -18.0655 C   0  0  0  0  0  0  0  0  0  0  0  0
   -4.7434    0.5138  -19.3793 C   0  0  0  0  0  0  0  0  0  0  0  0
   -3.6112    1.3361  -19.6202 C   0  0  0  0  0  0  0  0  0  0  0  0
   -3.2119    1.6084  -20.8997 C   0  0  0  0  0  0  0  0  0  0  0  0
   -3.9212    1.0744  -22.0009 C   0  0  0  0  0  0  0  0  0  0  0  0
   -5.0192    0.2759  -21.7957 C   0  0  0  0  0  0  0  0  0  0  0  0
   -5.4552   -0.0181  -20.4761 C   0  0  0  0  0  0  0  0  0  0  0  0
   -5.5598   -0.1442  -22.6387 H   0  0  0  0  0  0  0  0  0  0  0  0
   -3.5985    1.3056  -23.0120 H   0  0  0  0  0  0  0  0  0  0  0  0
   -2.3498    2.2449  -21.0832 H   0  0  0  0  0  0  0  0  0  0  0  0
   -3.0717    1.7360  -18.7658 H   0  0  0  0  0  0  0  0  0  0  0  0
   -4.6649    0.6171  -17.2125 H   0  0  0  0  0  0  0  0  0  0  0  0
   -7.7429   -1.7420  -18.6187 H   0  0  0  0  0  0  0  0  0  0  0  0
   -7.6160   -2.6516  -21.4350 C   0  0  0  0  0  0  0  0  0  0  0  0
   -6.9041   -3.5242  -20.9768 O   0  0  0  0  0  0  0  0  0  0  0  0
   -8.8470   -2.8233  -22.3487 C   0  0  1  0  0  0  0  0  0  0  0  0
  -10.0519   -3.2418  -21.4759 C   0  0  0  0  0  0  0  0  0  0  0  0
  -11.2148   -3.6907  -22.2310 N   0  0  0  0  0  0  0  0  0  0  0  0
  -12.5652   -3.6122  -21.6620 C   0  0  0  0  0  0  0  0  0  0  0  0
  -13.5544   -2.6604  -22.2831 C   0  0  0  0  0  0  0  0  0  0  0  0
  -13.9452   -1.3168  -22.0538 C   0  0  0  0  0  0  0  0  0  0  0  0
  -14.9058   -0.9241  -22.8910 N   0  0  0  0  0  0  0  0  0  0  0  0
  -15.1481   -2.0152  -23.6236 N   0  0  0  0  0  0  0  0  0  0  0  0
  -14.4212   -3.0808  -23.2647 C   0  0  0  0  0  0  0  0  0  0  0  0
  -14.5528   -4.0575  -23.7094 H   0  0  0  0  0  0  0  0  0  0  0  0
  -15.8894   -2.0056  -24.3131 H   0  0  0  0  0  0  0  0  0  0  0  0
  -13.5964   -0.5973  -21.3258 H   0  0  0  0  0  0  0  0  0  0  0  0
  -12.4988   -3.4439  -20.5891 H   0  0  0  0  0  0  0  0  0  0  0  0
  -13.0253   -4.5845  -21.8123 H   0  0  0  0  0  0  0  0  0  0  0  0
  -11.0649   -4.4677  -23.3517 C   0  0  0  0  0  0  0  0  0  0  0  0
  -12.0093   -4.9902  -23.9280 O   0  0  0  0  0  0  0  0  0  0  0  0
   -9.6709   -4.6734  -23.8580 C   0  0  0  0  0  0  0  0  0  0  0  0
   -9.4366   -5.6824  -24.7923 C   0  0  0  0  0  0  0  0  0  0  0  0
   -8.1600   -5.9116  -25.2763 C   0  0  0  0  0  0  0  0  0  0  0  0
   -7.1242   -5.0767  -24.8560 C   0  0  0  0  0  0  0  0  0  0  0  0
   -5.5417   -5.2681  -25.5439 Cl  0  0  0  0  0  0  0  0  0  0  0  0
   -7.3400   -4.0804  -23.9264 C   0  0  0  0  0  0  0  0  0  0  0  0
   -8.6186   -3.8843  -23.3946 C   0  0  0  0  0  0  0  0  0  0  0  0
   -6.5143   -3.4499  -23.6129 H   0  0  0  0  0  0  0  0  0  0  0  0
   -7.9719   -6.7000  -26.0023 H   0  0  0  0  0  0  0  0  0  0  0  0
  -10.2730   -6.2935  -25.1200 H   0  0  0  0  0  0  0  0  0  0  0  0
   -9.6901   -4.0351  -20.8149 H   0  0  0  0  0  0  0  0  0  0  0  0
  -10.3255   -2.3701  -20.8722 H   0  0  0  0  0  0  0  0  0  0  0  0
   -9.1378   -0.0990  -21.1509 H   0  0  0  0  0  0  0  0  0  0  0  0
   -7.9018    0.4295  -22.2955 H   0  0  0  0  0  0  0  0  0  0  0  0
   -8.3633   -1.3516  -23.8169 H   0  0  0  0  0  0  0  0  0  0  0  0
  -11.0809   -1.1594  -22.4727 H   0  0  0  0  0  0  0  0  0  0  0  0
  -10.4912    0.0997  -23.5380 H   0  0  0  0  0  0  0  0  0  0  0  0
  -10.6432   -2.1127  -26.3396 H   0  0  0  0  0  0  0  0  0  0  0  0
  -11.0344   -0.4015  -25.9575 H   0  0  0  0  0  0  0  0  0  0  0  0
   -9.3912   -1.0383  -25.6738 H   0  0  0  0  0  0  0  0  0  0  0  0
  1  2  1  0
  2  3  1  0
  3  4  1  0
  4  5  1  0
  5  6  1  0
  6  7  1  0
  7  8  2  0
  8  9  1  0
  9 10  2  0
 10 11  1  0
 11 12  2  0
 12 13  1  0
 13 14  2  0
 14 15  1  0
 15 16  2  0
 15 17  1  0
 14 18  1  0
 13 19  1  0
 12 20  1  0
 10 21  1  0
  8 22  1  0
  6 23  1  0
 23 24  2  0
 23 25  1  0
 25 26  1  1
 26 27  1  0
 27 28  1  0
 28 29  1  0
 29 30  1  0
 30 31  2  0
 31 32  1  0
 32 33  1  0
 33 34  1  0
 32 35  1  0
 30 36  1  0
 28 37  1  0
 28 38  1  0
 27 39  1  0
 39 40  2  0
 39 41  1  0
 41 42  2  0
 42 43  1  0
 43 44  2  0
 44 45  1  0
 44 46  1  0
 46 47  2  0
 46 48  1  0
 43 49  1  0
 42 50  1  0
 26 51  1  0
 26 52  1  0
  5 53  1  0
  5 54  1  0
  4 55  1  6
  3 56  1  0
  3 57  1  0
  1 58  1  0
  1 59  1  0
  1 60  1  0
 25  4  1  0
 33 29  2  0
 47 41  1  0
 16  7  1  0
 47 25  1  0
 16 11  1  0
M  END
>  <cnnaffinities>  (90) 
[6.48508, 6.72308, 6.66405, 6.47071]

>  <score>  (90) 
6.48508

>  <index>  (90) 
92

>  <Smiles>  (90) 
C(OC([C@]1(C(N(c2c(nc(c3c(c(c(c(c23)[H])[H])[H])[H])[H])[H])C(=O)[C@]21C(N(C(c1c(nn(c1[H])[H])[H])([H])[H])C(=O)c1c(c(c(Cl)c(c21)[H])[H])[H])([H])[H])([H])[H])[H])([H])[H])([H])([H])[H]

>  <h>  (90) 
<NA>

>  <Training>  (90) 
True

>  <Success>  (90) 
True

>  <enamine_searched>  (90) 
False

>  <enamine_id>  (90) 
nan

$$$$

     RDKit          3D

 62 67  0  0  0  0  0  0  0  0999 V2000
  -11.3320    4.3032  -25.2506 C   0  0  0  0  0  0  0  0  0  0  0  0
   -9.8476    4.1560  -25.5864 C   0  0  0  0  0  0  0  0  0  0  0  0
   -9.0862    3.5681  -24.4964 N   0  0  0  0  0  0  0  0  0  0  0  0
   -8.5823    4.4189  -23.5947 N   0  0  0  0  0  0  0  0  0  0  0  0
   -8.0156    3.6596  -22.6759 C   0  0  0  0  0  0  0  0  0  0  0  0
   -8.1511    2.2921  -22.9887 C   0  0  0  0  0  0  0  0  0  0  0  0
   -8.8956    2.2646  -24.1449 C   0  0  0  0  0  0  0  0  0  0  0  0
   -9.3981    1.0860  -24.9349 C   0  0  0  0  0  0  0  0  0  0  0  0
   -9.8607   -0.0068  -24.0947 N   0  0  0  0  0  0  0  0  0  0  0  0
   -9.0403   -1.1983  -23.9793 C   0  0  0  0  0  0  0  0  0  0  0  0
   -9.2249   -1.9155  -22.6154 C   0  0  2  0  0  0  0  0  0  0  0  0
   -8.6625   -1.0277  -21.4697 C   0  0  0  0  0  0  0  0  0  0  0  0
   -9.2304   -0.1120  -20.9117 O   0  0  0  0  0  0  0  0  0  0  0  0
   -7.3754   -1.4355  -21.1920 N   0  0  0  0  0  0  0  0  0  0  0  0
   -6.6002   -0.8270  -20.1674 C   0  0  0  0  0  0  0  0  0  0  0  0
   -6.9088   -1.0464  -18.8471 C   0  0  0  0  0  0  0  0  0  0  0  0
   -6.2060   -0.5427  -17.8020 N   0  0  0  0  0  0  0  0  0  0  0  0
   -5.1663    0.2065  -18.0763 C   0  0  0  0  0  0  0  0  0  0  0  0
   -4.7304    0.5235  -19.3948 C   0  0  0  0  0  0  0  0  0  0  0  0
   -3.6062    1.3597  -19.6374 C   0  0  0  0  0  0  0  0  0  0  0  0
   -3.2283    1.6585  -20.9174 C   0  0  0  0  0  0  0  0  0  0  0  0
   -3.9545    1.1342  -22.0093 C   0  0  0  0  0  0  0  0  0  0  0  0
   -5.0462    0.3224  -21.7994 C   0  0  0  0  0  0  0  0  0  0  0  0
   -5.4637   -0.0084  -20.4823 C   0  0  0  0  0  0  0  0  0  0  0  0
   -5.6065   -0.0555  -22.6495 H   0  0  0  0  0  0  0  0  0  0  0  0
   -3.6578    1.3910  -23.0216 H   0  0  0  0  0  0  0  0  0  0  0  0
   -2.3799    2.3124  -21.1033 H   0  0  0  0  0  0  0  0  0  0  0  0
   -3.0673    1.7649  -18.7852 H   0  0  0  0  0  0  0  0  0  0  0  0
   -4.6133    0.6126  -17.2285 H   0  0  0  0  0  0  0  0  0  0  0  0
   -7.7566   -1.6739  -18.5834 H   0  0  0  0  0  0  0  0  0  0  0  0
   -6.9636   -2.6141  -21.9346 C   0  0  0  0  0  0  0  0  0  0  0  0
   -8.2907   -3.1604  -22.5105 C   0  0  2  0  0  0  0  0  0  0  0  0
   -8.0935   -3.9859  -23.7844 C   0  0  0  0  0  0  0  0  0  0  0  0
   -7.5533   -3.4118  -24.5484 H   0  0  0  0  0  0  0  0  0  0  0  0
   -7.5061   -4.8890  -23.5810 H   0  0  0  0  0  0  0  0  0  0  0  0
   -9.0501   -4.2982  -24.2195 H   0  0  0  0  0  0  0  0  0  0  0  0
   -8.7225   -3.8031  -21.7371 H   0  0  0  0  0  0  0  0  0  0  0  0
   -6.4649   -3.3291  -21.2697 H   0  0  0  0  0  0  0  0  0  0  0  0
   -6.2537   -2.3624  -22.7388 H   0  0  0  0  0  0  0  0  0  0  0  0
  -10.7168   -2.1460  -22.4260 C   0  0  0  0  0  0  0  0  0  0  0  0
  -11.2301   -3.2288  -21.7003 C   0  0  0  0  0  0  0  0  0  0  0  0
  -12.5879   -3.3016  -21.4570 C   0  0  0  0  0  0  0  0  0  0  0  0
  -13.0767   -4.2867  -20.6870 F   0  0  0  0  0  0  0  0  0  0  0  0
  -13.4872   -2.3610  -21.9352 C   0  0  0  0  0  0  0  0  0  0  0  0
  -12.9901   -1.2858  -22.6402 C   0  0  0  0  0  0  0  0  0  0  0  0
  -11.6202   -1.1706  -22.8825 C   0  0  0  0  0  0  0  0  0  0  0  0
  -11.1472    0.0361  -23.6411 C   0  0  0  0  0  0  0  0  0  0  0  0
  -11.8838    0.9872  -23.8609 O   0  0  0  0  0  0  0  0  0  0  0  0
  -13.6438   -0.5020  -23.0061 H   0  0  0  0  0  0  0  0  0  0  0  0
  -14.5413   -2.4888  -21.7210 H   0  0  0  0  0  0  0  0  0  0  0  0
  -10.5957   -3.9871  -21.2580 H   0  0  0  0  0  0  0  0  0  0  0  0
   -9.2949   -1.9052  -24.7846 H   0  0  0  0  0  0  0  0  0  0  0  0
   -7.9928   -0.8969  -24.0902 H   0  0  0  0  0  0  0  0  0  0  0  0
  -10.2126    1.3856  -25.6086 H   0  0  0  0  0  0  0  0  0  0  0  0
   -8.5735    0.6935  -25.5432 H   0  0  0  0  0  0  0  0  0  0  0  0
   -7.7933    1.4107  -22.4806 H   0  0  0  0  0  0  0  0  0  0  0  0
   -7.6416    4.1810  -21.8040 H   0  0  0  0  0  0  0  0  0  0  0  0
   -9.3849    5.1388  -25.7382 H   0  0  0  0  0  0  0  0  0  0  0  0
   -9.6875    3.5515  -26.4900 H   0  0  0  0  0  0  0  0  0  0  0  0
  -11.7781    3.3220  -25.0469 H   0  0  0  0  0  0  0  0  0  0  0  0
  -11.4724    4.9415  -24.3691 H   0  0  0  0  0  0  0  0  0  0  0  0
  -11.8492    4.7670  -26.0971 H   0  0  0  0  0  0  0  0  0  0  0  0
  1  2  1  0
  2  3  1  0
  3  4  1  0
  4  5  2  0
  5  6  1  0
  6  7  2  0
  7  8  1  0
  8  9  1  0
  9 10  1  0
 11 10  1  6
 11 12  1  0
 12 13  2  0
 12 14  1  0
 14 15  1  0
 15 16  2  0
 16 17  1  0
 17 18  2  0
 18 19  1  0
 19 20  2  0
 20 21  1  0
 21 22  2  0
 22 23  1  0
 23 24  2  0
 23 25  1  0
 22 26  1  0
 21 27  1  0
 20 28  1  0
 18 29  1  0
 16 30  1  0
 14 31  1  0
 31 32  1  0
 32 33  1  0
 33 34  1  0
 33 35  1  0
 33 36  1  0
 32 37  1  1
 31 38  1  0
 31 39  1  0
 11 40  1  0
 40 41  2  0
 41 42  1  0
 42 43  1  0
 42 44  2  0
 44 45  1  0
 45 46  2  0
 46 47  1  0
 47 48  2  0
 45 49  1  0
 44 50  1  0
 41 51  1  0
 10 52  1  0
 10 53  1  0
  8 54  1  0
  8 55  1  0
  6 56  1  0
  5 57  1  0
  2 58  1  0
  2 59  1  0
  1 60  1  0
  1 61  1  0
  1 62  1  0
  7  3  1  0
 47  9  1  0
 32 11  1  0
 46 40  1  0
 24 15  1  0
 24 19  1  0
M  END
>  <cnnaffinities>  (91) 
[6.76479]

>  <score>  (91) 
6.76479

>  <index>  (91) 
93

>  <Smiles>  (91) 
C(C(n1nc(c(c1C(N1C([C@@]2(C(=O)N(c3c(nc(c4c(c(c(c(c34)[H])[H])[H])[H])[H])[H])C([C@@]2(C([H])([H])[H])[H])([H])[H])c2c(c(F)c(c(c2C1=O)[H])[H])[H])([H])[H])([H])[H])[H])[H])([H])[H])([H])([H])[H]

>  <h>  (91) 
<NA>

>  <Training>  (91) 
True

>  <Success>  (91) 
True

>  <enamine_searched>  (91) 
False

>  <enamine_id>  (91) 
nan

$$$$

     RDKit          3D

 66 71  0  0  0  0  0  0  0  0999 V2000
   -7.6652    3.0676  -22.4727 C   0  0  0  0  0  0  0  0  0  0  0  0
   -8.5448    2.5728  -23.5065 N   0  0  0  0  0  0  0  0  0  0  0  0
   -8.0074    1.9400  -24.5781 C   0  0  0  0  0  0  0  0  0  0  0  0
   -6.8096    1.9264  -24.8181 O   0  0  0  0  0  0  0  0  0  0  0  0
   -9.0404    1.1961  -25.4212 C   0  0  0  0  0  0  0  0  0  0  0  0
   -9.6781    0.1530  -24.6366 N   0  0  0  0  0  0  0  0  0  0  0  0
   -8.8116   -0.9376  -24.2341 C   0  0  0  0  0  0  0  0  0  0  0  0
   -9.2063   -1.5979  -22.8763 C   0  0  2  0  0  0  0  0  0  0  0  0
   -8.6752   -0.7208  -21.7099 C   0  0  0  0  0  0  0  0  0  0  0  0
   -9.2067    0.2739  -21.2512 O   0  0  0  0  0  0  0  0  0  0  0  0
   -7.4736   -1.2465  -21.2854 N   0  0  0  0  0  0  0  0  0  0  0  0
   -6.7138   -0.6930  -20.2196 C   0  0  0  0  0  0  0  0  0  0  0  0
   -7.0316   -0.9621  -18.9122 C   0  0  0  0  0  0  0  0  0  0  0  0
   -6.3091   -0.5361  -17.8438 N   0  0  0  0  0  0  0  0  0  0  0  0
   -5.2311    0.1706  -18.0832 C   0  0  0  0  0  0  0  0  0  0  0  0
   -4.7799    0.5228  -19.3890 C   0  0  0  0  0  0  0  0  0  0  0  0
   -3.6080    1.2960  -19.6143 C   0  0  0  0  0  0  0  0  0  0  0  0
   -3.2242    1.6190  -20.8871 C   0  0  0  0  0  0  0  0  0  0  0  0
   -3.9922    1.1965  -21.9944 C   0  0  0  0  0  0  0  0  0  0  0  0
   -5.1322    0.4529  -21.8022 C   0  0  0  0  0  0  0  0  0  0  0  0
   -5.5476    0.0863  -20.4945 C   0  0  0  0  0  0  0  0  0  0  0  0
   -5.7552    0.1896  -22.6535 H   0  0  0  0  0  0  0  0  0  0  0  0
   -3.6915    1.4677  -23.0012 H   0  0  0  0  0  0  0  0  0  0  0  0
   -2.3328    2.2170  -21.0566 H   0  0  0  0  0  0  0  0  0  0  0  0
   -3.0293    1.6297  -18.7571 H   0  0  0  0  0  0  0  0  0  0  0  0
   -4.6539    0.5047  -17.2183 H   0  0  0  0  0  0  0  0  0  0  0  0
   -7.9069   -1.5656  -18.6824 H   0  0  0  0  0  0  0  0  0  0  0  0
   -7.0760   -2.4600  -21.9816 C   0  0  0  0  0  0  0  0  0  0  0  0
   -8.3900   -2.8981  -22.6501 C   0  0  2  0  0  0  0  0  0  0  0  0
   -8.2366   -3.7987  -23.8846 C   0  0  0  0  0  0  0  0  0  0  0  0
   -7.7753   -5.1296  -23.5669 N   0  0  0  0  0  0  0  0  0  0  0  0
   -6.4816   -5.5353  -23.4668 C   0  0  0  0  0  0  0  0  0  0  0  0
   -5.4118   -4.9400  -24.1669 C   0  0  0  0  0  0  0  0  0  0  0  0
   -4.1795   -5.5475  -24.0273 C   0  0  0  0  0  0  0  0  0  0  0  0
   -3.9713   -6.6033  -23.2327 N   0  0  0  0  0  0  0  0  0  0  0  0
   -5.0462   -7.0667  -22.6119 C   0  0  0  0  0  0  0  0  0  0  0  0
   -6.2905   -6.6143  -22.6882 N   0  0  0  0  0  0  0  0  0  0  0  0
   -4.8980   -7.9380  -21.9742 H   0  0  0  0  0  0  0  0  0  0  0  0
   -3.3082   -5.1879  -24.5777 H   0  0  0  0  0  0  0  0  0  0  0  0
   -5.5475   -4.0791  -24.8129 H   0  0  0  0  0  0  0  0  0  0  0  0
   -8.3933   -5.6695  -22.9819 H   0  0  0  0  0  0  0  0  0  0  0  0
   -7.5517   -3.3429  -24.6057 H   0  0  0  0  0  0  0  0  0  0  0  0
   -9.2131   -3.8792  -24.3825 H   0  0  0  0  0  0  0  0  0  0  0  0
   -8.9326   -3.4703  -21.8933 H   0  0  0  0  0  0  0  0  0  0  0  0
   -6.2785   -2.2742  -22.7202 H   0  0  0  0  0  0  0  0  0  0  0  0
   -6.6887   -3.1950  -21.2679 H   0  0  0  0  0  0  0  0  0  0  0  0
  -10.7191   -1.7527  -22.7902 C   0  0  0  0  0  0  0  0  0  0  0  0
  -11.3372   -2.7115  -21.9666 C   0  0  0  0  0  0  0  0  0  0  0  0
  -12.7149   -2.7388  -21.8261 C   0  0  0  0  0  0  0  0  0  0  0  0
  -13.4532   -3.9236  -20.7814 Cl  0  0  0  0  0  0  0  0  0  0  0  0
  -13.5342   -1.8230  -22.4833 C   0  0  0  0  0  0  0  0  0  0  0  0
  -12.9387   -0.8628  -23.2756 C   0  0  0  0  0  0  0  0  0  0  0  0
  -11.5518   -0.8237  -23.4314 C   0  0  0  0  0  0  0  0  0  0  0  0
  -10.9803    0.2863  -24.2603 C   0  0  0  0  0  0  0  0  0  0  0  0
  -11.6526    1.2717  -24.5581 O   0  0  0  0  0  0  0  0  0  0  0  0
  -13.5348   -0.1051  -23.7748 H   0  0  0  0  0  0  0  0  0  0  0  0
  -14.6104   -1.8653  -22.3454 H   0  0  0  0  0  0  0  0  0  0  0  0
  -10.7673   -3.4376  -21.3983 H   0  0  0  0  0  0  0  0  0  0  0  0
   -7.8015   -0.5207  -24.1466 H   0  0  0  0  0  0  0  0  0  0  0  0
   -8.7866   -1.6789  -25.0414 H   0  0  0  0  0  0  0  0  0  0  0  0
   -9.8344    1.8662  -25.7479 H   0  0  0  0  0  0  0  0  0  0  0  0
   -8.5316    0.7903  -26.2965 H   0  0  0  0  0  0  0  0  0  0  0  0
   -9.4827    2.3243  -23.2335 H   0  0  0  0  0  0  0  0  0  0  0  0
   -7.0884    2.2557  -22.0040 H   0  0  0  0  0  0  0  0  0  0  0  0
   -8.2444    3.5944  -21.7142 H   0  0  0  0  0  0  0  0  0  0  0  0
   -6.9550    3.7772  -22.9001 H   0  0  0  0  0  0  0  0  0  0  0  0
  1  2  1  0
  2  3  1  0
  3  4  2  0
  3  5  1  0
  5  6  1  0
  6  7  1  0
  8  7  1  6
  8  9  1  0
  9 10  2  0
  9 11  1  0
 11 12  1  0
 12 13  2  0
 13 14  1  0
 14 15  2  0
 15 16  1  0
 16 17  2  0
 17 18  1  0
 18 19  2  0
 19 20  1  0
 20 21  2  0
 20 22  1  0
 19 23  1  0
 18 24  1  0
 17 25  1  0
 15 26  1  0
 13 27  1  0
 11 28  1  0
 28 29  1  0
 29 30  1  0
 30 31  1  0
 31 32  1  0
 32 33  2  0
 33 34  1  0
 34 35  2  0
 35 36  1  0
 36 37  2  0
 36 38  1  0
 34 39  1  0
 33 40  1  0
 31 41  1  0
 30 42  1  0
 30 43  1  0
 29 44  1  1
 28 45  1  0
 28 46  1  0
  8 47  1  0
 47 48  2  0
 48 49  1  0
 49 50  1  0
 49 51  2  0
 51 52  1  0
 52 53  2  0
 53 54  1  0
 54 55  2  0
 52 56  1  0
 51 57  1  0
 48 58  1  0
  7 59  1  0
  7 60  1  0
  5 61  1  0
  5 62  1  0
  2 63  1  0
  1 64  1  0
  1 65  1  0
  1 66  1  0
 54  6  1  0
 29  8  1  0
 37 32  1  0
 53 47  1  0
 21 12  1  0
 21 16  1  0
M  END
>  <cnnaffinities>  (92) 
[6.79813, 6.29061]

>  <score>  (92) 
6.79813

>  <index>  (92) 
95

>  <Smiles>  (92) 
C(N(C(=O)C(N1C([C@@]2(C(=O)N(c3c(nc(c4c(c(c(c(c34)[H])[H])[H])[H])[H])[H])C([C@@]2(C(N(c2c(c(nc(n2)[H])[H])[H])[H])([H])[H])[H])([H])[H])c2c(c(Cl)c(c(c2C1=O)[H])[H])[H])([H])[H])([H])[H])[H])([H])([H])[H]

>  <h>  (92) 
<NA>

>  <Training>  (92) 
True

>  <Success>  (92) 
True

>  <enamine_searched>  (92) 
False

>  <enamine_id>  (92) 
nan

$$$$

     RDKit          3D

 66 70  0  0  0  0  0  0  0  0999 V2000
   -7.7430    2.8831  -22.3012 C   0  0  0  0  0  0  0  0  0  0  0  0
   -8.6714    2.3802  -23.2804 N   0  0  0  0  0  0  0  0  0  0  0  0
   -8.2160    1.8448  -24.4378 C   0  0  0  0  0  0  0  0  0  0  0  0
   -7.0366    1.8121  -24.7653 O   0  0  0  0  0  0  0  0  0  0  0  0
   -9.3189    1.1771  -25.2506 C   0  0  0  0  0  0  0  0  0  0  0  0
   -9.8519    0.0563  -24.4909 N   0  0  0  0  0  0  0  0  0  0  0  0
   -8.9126   -1.0029  -24.1656 C   0  0  0  0  0  0  0  0  0  0  0  0
   -9.2078   -1.7378  -22.8224 C   0  0  2  0  0  0  0  0  0  0  0  0
   -8.6939   -0.8799  -21.6301 C   0  0  0  0  0  0  0  0  0  0  0  0
   -9.2631    0.0713  -21.1278 O   0  0  0  0  0  0  0  0  0  0  0  0
   -7.4629   -1.3609  -21.2388 N   0  0  0  0  0  0  0  0  0  0  0  0
   -6.6947   -0.7757  -20.1956 C   0  0  0  0  0  0  0  0  0  0  0  0
   -7.0193   -1.0012  -18.8816 C   0  0  0  0  0  0  0  0  0  0  0  0
   -6.3070   -0.5393  -17.8216 N   0  0  0  0  0  0  0  0  0  0  0  0
   -5.2321    0.1668  -18.0768 C   0  0  0  0  0  0  0  0  0  0  0  0
   -4.7819    0.4876  -19.3902 C   0  0  0  0  0  0  0  0  0  0  0  0
   -3.6231    1.2788  -19.6209 C   0  0  0  0  0  0  0  0  0  0  0  0
   -3.2395    1.5924  -20.8960 C   0  0  0  0  0  0  0  0  0  0  0  0
   -3.9957    1.1410  -21.9984 C   0  0  0  0  0  0  0  0  0  0  0  0
   -5.1201    0.3731  -21.8011 C   0  0  0  0  0  0  0  0  0  0  0  0
   -5.5367    0.0134  -20.4894 C   0  0  0  0  0  0  0  0  0  0  0  0
   -5.7343    0.1083  -22.6573 H   0  0  0  0  0  0  0  0  0  0  0  0
   -3.7041    1.4206  -23.0068 H   0  0  0  0  0  0  0  0  0  0  0  0
   -2.3635    2.2104  -21.0735 H   0  0  0  0  0  0  0  0  0  0  0  0
   -3.0548    1.6372  -18.7672 H   0  0  0  0  0  0  0  0  0  0  0  0
   -4.6572    0.5327  -17.2232 H   0  0  0  0  0  0  0  0  0  0  0  0
   -7.8956   -1.5990  -18.6434 H   0  0  0  0  0  0  0  0  0  0  0  0
   -7.0028   -2.4978  -22.0141 C   0  0  0  0  0  0  0  0  0  0  0  0
   -8.2906   -2.9912  -22.7026 C   0  0  2  0  0  0  0  0  0  0  0  0
   -8.0062   -3.7192  -24.0078 C   0  0  0  0  0  0  0  0  0  0  0  0
   -7.2661   -4.8882  -23.7458 O   0  0  0  0  0  0  0  0  0  0  0  0
   -7.0699   -5.6819  -24.9105 C   0  0  0  0  0  0  0  0  0  0  0  0
   -5.6974   -6.3240  -24.8000 C   0  0  0  0  0  0  0  0  0  0  0  0
   -5.4836   -6.9380  -25.6819 H   0  0  0  0  0  0  0  0  0  0  0  0
   -4.9170   -5.5620  -24.7106 H   0  0  0  0  0  0  0  0  0  0  0  0
   -5.6665   -6.9606  -23.9113 H   0  0  0  0  0  0  0  0  0  0  0  0
   -8.1819   -6.7182  -25.0090 C   0  0  0  0  0  0  0  0  0  0  0  0
   -8.1635   -7.3494  -24.1162 H   0  0  0  0  0  0  0  0  0  0  0  0
   -9.1694   -6.2481  -25.0696 H   0  0  0  0  0  0  0  0  0  0  0  0
   -8.0492   -7.3506  -25.8933 H   0  0  0  0  0  0  0  0  0  0  0  0
   -7.0921   -5.0322  -25.8017 H   0  0  0  0  0  0  0  0  0  0  0  0
   -8.9551   -3.9527  -24.5205 H   0  0  0  0  0  0  0  0  0  0  0  0
   -7.4109   -3.0743  -24.6772 H   0  0  0  0  0  0  0  0  0  0  0  0
   -8.7676   -3.7064  -22.0299 H   0  0  0  0  0  0  0  0  0  0  0  0
   -6.2281   -2.2129  -22.7464 H   0  0  0  0  0  0  0  0  0  0  0  0
   -6.5688   -3.2591  -21.3605 H   0  0  0  0  0  0  0  0  0  0  0  0
  -10.7092   -1.9783  -22.7063 C   0  0  0  0  0  0  0  0  0  0  0  0
  -11.2449   -2.9565  -21.8537 C   0  0  0  0  0  0  0  0  0  0  0  0
  -12.6146   -3.0382  -21.6497 C   0  0  0  0  0  0  0  0  0  0  0  0
  -13.2650   -4.1841  -20.5141 Cl  0  0  0  0  0  0  0  0  0  0  0  0
  -13.5156   -2.2022  -22.3039 C   0  0  0  0  0  0  0  0  0  0  0  0
  -13.0017   -1.2414  -23.1436 C   0  0  0  0  0  0  0  0  0  0  0  0
  -11.6257   -1.1159  -23.3291 C   0  0  0  0  0  0  0  0  0  0  0  0
  -11.1767    0.0337  -24.1742 C   0  0  0  0  0  0  0  0  0  0  0  0
  -11.9526    0.9116  -24.5298 O   0  0  0  0  0  0  0  0  0  0  0  0
  -13.6493   -0.5375  -23.6508 H   0  0  0  0  0  0  0  0  0  0  0  0
  -14.5824   -2.2987  -22.1247 H   0  0  0  0  0  0  0  0  0  0  0  0
  -10.6094   -3.6513  -21.3153 H   0  0  0  0  0  0  0  0  0  0  0  0
   -8.9050   -1.7205  -24.9915 H   0  0  0  0  0  0  0  0  0  0  0  0
   -7.9158   -0.5506  -24.1215 H   0  0  0  0  0  0  0  0  0  0  0  0
   -8.9003    0.8653  -26.2119 H   0  0  0  0  0  0  0  0  0  0  0  0
  -10.1471    1.8666  -25.4239 H   0  0  0  0  0  0  0  0  0  0  0  0
   -9.5874    2.1100  -22.9650 H   0  0  0  0  0  0  0  0  0  0  0  0
   -7.4432    3.9149  -22.5041 H   0  0  0  0  0  0  0  0  0  0  0  0
   -8.2117    2.8424  -21.3223 H   0  0  0  0  0  0  0  0  0  0  0  0
   -6.8566    2.2470  -22.2790 H   0  0  0  0  0  0  0  0  0  0  0  0
  1  2  1  0
  2  3  1  0
  3  4  2  0
  3  5  1  0
  5  6  1  0
  6  7  1  0
  8  7  1  6
  8  9  1  0
  9 10  2  0
  9 11  1  0
 11 12  1  0
 12 13  2  0
 13 14  1  0
 14 15  2  0
 15 16  1  0
 16 17  2  0
 17 18  1  0
 18 19  2  0
 19 20  1  0
 20 21  2  0
 20 22  1  0
 19 23  1  0
 18 24  1  0
 17 25  1  0
 15 26  1  0
 13 27  1  0
 11 28  1  0
 28 29  1  0
 29 30  1  0
 30 31  1  0
 31 32  1  0
 32 33  1  0
 33 34  1  0
 33 35  1  0
 33 36  1  0
 32 37  1  0
 37 38  1  0
 37 39  1  0
 37 40  1  0
 32 41  1  0
 30 42  1  0
 30 43  1  0
 29 44  1  1
 28 45  1  0
 28 46  1  0
  8 47  1  0
 47 48  2  0
 48 49  1  0
 49 50  1  0
 49 51  2  0
 51 52  1  0
 52 53  2  0
 53 54  1  0
 54 55  2  0
 52 56  1  0
 51 57  1  0
 48 58  1  0
  7 59  1  0
  7 60  1  0
  5 61  1  0
  5 62  1  0
  2 63  1  0
  1 64  1  0
  1 65  1  0
  1 66  1  0
 54  6  1  0
 29  8  1  0
 53 47  1  0
 21 12  1  0
 21 16  1  0
M  END
>  <cnnaffinities>  (93) 
[6.52506, 6.58473, 6.42596, 6.3448]

>  <score>  (93) 
6.52506

>  <index>  (93) 
96

>  <Smiles>  (93) 
C(N(C(=O)C(N1C([C@@]2(C(=O)N(c3c(nc(c4c(c(c(c(c34)[H])[H])[H])[H])[H])[H])C([C@@]2(C(OC(C([H])([H])[H])(C([H])([H])[H])[H])([H])[H])[H])([H])[H])c2c(c(Cl)c(c(c2C1=O)[H])[H])[H])([H])[H])([H])[H])[H])([H])([H])[H]

>  <h>  (93) 
<NA>

>  <Training>  (93) 
True

>  <Success>  (93) 
True

>  <enamine_searched>  (93) 
False

>  <enamine_id>  (93) 
nan

$$$$

     RDKit          3D

 40 43  0  0  0  0  0  0  0  0999 V2000
   -7.2500   -3.9200  -26.5171 C   0  0  0  0  0  0  0  0  0  0  0  0
   -7.2745   -4.1187  -24.9988 C   0  0  2  0  0  0  0  0  0  0  0  0
   -7.9246   -5.4718  -24.6370 C   0  0  0  0  0  0  0  0  0  0  0  0
   -8.7172   -5.3980  -23.4698 O   0  0  0  0  0  0  0  0  0  0  0  0
   -8.0644   -4.6857  -22.4501 C   0  0  0  0  0  0  0  0  0  0  0  0
   -8.0309   -3.1741  -22.7543 C   0  0  1  0  0  0  0  0  0  0  0  0
   -8.0058   -2.9776  -24.2863 C   0  0  0  0  0  0  0  0  0  0  0  0
   -7.5291   -2.0158  -24.5115 H   0  0  0  0  0  0  0  0  0  0  0  0
   -9.0444   -2.9213  -24.6463 H   0  0  0  0  0  0  0  0  0  0  0  0
   -9.1286   -2.4451  -22.1462 N   0  0  0  0  0  0  0  0  0  0  0  0
   -8.7416   -1.3713  -21.3945 C   0  0  0  0  0  0  0  0  0  0  0  0
   -9.4224   -0.4650  -20.9908 O   0  0  0  0  0  0  0  0  0  0  0  0
   -7.3384   -1.5266  -21.2076 N   0  0  0  0  0  0  0  0  0  0  0  0
   -6.5836   -0.8639  -20.1895 C   0  0  0  0  0  0  0  0  0  0  0  0
   -6.9134   -1.0596  -18.8704 C   0  0  0  0  0  0  0  0  0  0  0  0
   -6.2220   -0.5405  -17.8261 N   0  0  0  0  0  0  0  0  0  0  0  0
   -5.1804    0.2038  -18.0981 C   0  0  0  0  0  0  0  0  0  0  0  0
   -4.7449    0.5198  -19.4124 C   0  0  0  0  0  0  0  0  0  0  0  0
   -3.6147    1.3527  -19.6383 C   0  0  0  0  0  0  0  0  0  0  0  0
   -3.2252    1.6576  -20.9117 C   0  0  0  0  0  0  0  0  0  0  0  0
   -3.9551    1.1437  -22.0073 C   0  0  0  0  0  0  0  0  0  0  0  0
   -5.0483    0.3359  -21.8135 C   0  0  0  0  0  0  0  0  0  0  0  0
   -5.4688   -0.0160  -20.5007 C   0  0  0  0  0  0  0  0  0  0  0  0
   -5.5997   -0.0445  -22.6666 H   0  0  0  0  0  0  0  0  0  0  0  0
   -3.6486    1.3999  -23.0157 H   0  0  0  0  0  0  0  0  0  0  0  0
   -2.3697    2.3053  -21.0918 H   0  0  0  0  0  0  0  0  0  0  0  0
   -3.0786    1.7470  -18.7804 H   0  0  0  0  0  0  0  0  0  0  0  0
   -4.6285    0.6038  -17.2487 H   0  0  0  0  0  0  0  0  0  0  0  0
   -7.7601   -1.6844  -18.5977 H   0  0  0  0  0  0  0  0  0  0  0  0
   -6.8348   -2.5223  -22.0471 C   0  0  0  0  0  0  0  0  0  0  0  0
   -5.6718   -2.8038  -22.2188 O   0  0  0  0  0  0  0  0  0  0  0  0
  -10.0959   -2.6216  -22.3691 H   0  0  0  0  0  0  0  0  0  0  0  0
   -7.0339   -5.0520  -22.3014 H   0  0  0  0  0  0  0  0  0  0  0  0
   -8.6534   -4.8232  -21.5432 H   0  0  0  0  0  0  0  0  0  0  0  0
   -8.6130   -5.8090  -25.4221 H   0  0  0  0  0  0  0  0  0  0  0  0
   -7.1336   -6.2331  -24.5087 H   0  0  0  0  0  0  0  0  0  0  0  0
   -6.2401   -4.1264  -24.6199 H   0  0  0  0  0  0  0  0  0  0  0  0
   -6.7272   -4.7442  -27.0203 H   0  0  0  0  0  0  0  0  0  0  0  0
   -8.2740   -3.8744  -26.9168 H   0  0  0  0  0  0  0  0  0  0  0  0
   -6.7467   -2.9824  -26.7842 H   0  0  0  0  0  0  0  0  0  0  0  0
  1  2  1  0
  2  3  1  0
  3  4  1  0
  4  5  1  0
  5  6  1  0
  6  7  1  0
  7  8  1  0
  7  9  1  0
  6 10  1  1
 10 11  1  0
 11 12  2  0
 11 13  1  0
 13 14  1  0
 14 15  2  0
 15 16  1  0
 16 17  2  0
 17 18  1  0
 18 19  2  0
 19 20  1  0
 20 21  2  0
 21 22  1  0
 22 23  2  0
 22 24  1  0
 21 25  1  0
 20 26  1  0
 19 27  1  0
 17 28  1  0
 15 29  1  0
 13 30  1  0
 30 31  2  0
 10 32  1  0
  5 33  1  0
  5 34  1  0
  3 35  1  0
  3 36  1  0
  2 37  1  1
  1 38  1  0
  1 39  1  0
  1 40  1  0
  7  2  1  0
 23 14  1  0
 30  6  1  0
 23 18  1  0
M  END
>  <cnnaffinities>  (94) 
[4.91863, 4.75947]

>  <score>  (94) 
4.91863

>  <index>  (94) 
97

>  <Smiles>  (94) 
C([C@@]1(C(OC([C@@]2(C1([H])[H])N(C(=O)N(c1c(nc(c3c(c(c(c(c13)[H])[H])[H])[H])[H])[H])C2=O)[H])([H])[H])([H])[H])[H])([H])([H])[H]

>  <h>  (94) 
<NA>

>  <Training>  (94) 
True

>  <Success>  (94) 
True

>  <enamine_searched>  (94) 
False

>  <enamine_id>  (94) 
nan

$$$$
