
     RDKit          3D

 66 71  0  0  0  0  0  0  0  0999 V2000
   -7.4690    3.2937  -21.6963 C   0  0  0  0  0  0  0  0  0  0  0  0
   -8.3550    2.8489  -22.7529 N   0  0  0  0  0  0  0  0  0  0  0  0
   -7.7999    2.2016  -23.7965 C   0  0  0  0  0  0  0  0  0  0  0  0
   -6.5860    2.1235  -23.9390 O   0  0  0  0  0  0  0  0  0  0  0  0
   -8.7582    1.5803  -24.8202 C   0  0  0  0  0  0  0  0  0  0  0  0
   -9.4613    0.4096  -24.3287 N   0  0  0  0  0  0  0  0  0  0  0  0
   -8.7247   -0.8354  -24.1922 C   0  0  0  0  0  0  0  0  0  0  0  0
   -9.0837   -1.5716  -22.8752 C   0  0  2  0  0  0  0  0  0  0  0  0
   -8.5443   -0.7708  -21.6553 C   0  0  0  0  0  0  0  0  0  0  0  0
   -9.0270    0.2269  -21.1592 O   0  0  0  0  0  0  0  0  0  0  0  0
   -7.3982   -1.3822  -21.2041 N   0  0  0  0  0  0  0  0  0  0  0  0
   -6.6051   -0.8075  -20.1771 C   0  0  0  0  0  0  0  0  0  0  0  0
   -6.9072   -1.0421  -18.8601 C   0  0  0  0  0  0  0  0  0  0  0  0
   -6.1988   -0.5474  -17.8178 N   0  0  0  0  0  0  0  0  0  0  0  0
   -5.1651    0.2094  -18.0817 C   0  0  0  0  0  0  0  0  0  0  0  0
   -4.7280    0.5320  -19.3974 C   0  0  0  0  0  0  0  0  0  0  0  0
   -3.6020    1.3668  -19.6422 C   0  0  0  0  0  0  0  0  0  0  0  0
   -3.2182    1.6609  -20.9210 C   0  0  0  0  0  0  0  0  0  0  0  0
   -3.9430    1.1335  -22.0133 C   0  0  0  0  0  0  0  0  0  0  0  0
   -5.0344    0.3248  -21.8016 C   0  0  0  0  0  0  0  0  0  0  0  0
   -5.4638    0.0025  -20.4862 C   0  0  0  0  0  0  0  0  0  0  0  0
   -5.5948   -0.0542  -22.6515 H   0  0  0  0  0  0  0  0  0  0  0  0
   -3.6557    1.3747  -23.0306 H   0  0  0  0  0  0  0  0  0  0  0  0
   -2.3675    2.3131  -21.1012 H   0  0  0  0  0  0  0  0  0  0  0  0
   -3.0708    1.7726  -18.7847 H   0  0  0  0  0  0  0  0  0  0  0  0
   -4.6171    0.6121  -17.2292 H   0  0  0  0  0  0  0  0  0  0  0  0
   -7.7563   -1.6684  -18.5982 H   0  0  0  0  0  0  0  0  0  0  0  0
   -7.0299   -2.5753  -21.9343 C   0  0  0  0  0  0  0  0  0  0  0  0
   -8.3052   -2.9225  -22.7296 C   0  0  2  0  0  0  0  0  0  0  0  0
   -7.9947   -3.7282  -24.0182 C   0  0  0  0  0  0  0  0  0  0  0  0
   -7.4779   -5.0646  -23.7795 N   0  0  0  0  0  0  0  0  0  0  0  0
   -6.1883   -5.3892  -23.5147 C   0  0  0  0  0  0  0  0  0  0  0  0
   -5.0981   -4.6011  -23.9355 C   0  0  0  0  0  0  0  0  0  0  0  0
   -3.8413   -5.0617  -23.5908 C   0  0  0  0  0  0  0  0  0  0  0  0
   -3.6404   -6.1827  -22.8822 N   0  0  0  0  0  0  0  0  0  0  0  0
   -4.7423   -6.8529  -22.5603 C   0  0  0  0  0  0  0  0  0  0  0  0
   -6.0017   -6.5417  -22.8445 N   0  0  0  0  0  0  0  0  0  0  0  0
   -4.5854   -7.7765  -21.9885 H   0  0  0  0  0  0  0  0  0  0  0  0
   -2.9409   -4.5114  -23.8921 H   0  0  0  0  0  0  0  0  0  0  0  0
   -5.2448   -3.6909  -24.5170 H   0  0  0  0  0  0  0  0  0  0  0  0
   -8.1232   -5.7906  -23.5087 H   0  0  0  0  0  0  0  0  0  0  0  0
   -7.2735   -3.1766  -24.6387 H   0  0  0  0  0  0  0  0  0  0  0  0
   -8.9097   -3.8577  -24.6059 H   0  0  0  0  0  0  0  0  0  0  0  0
   -8.9319   -3.5615  -22.1023 H   0  0  0  0  0  0  0  0  0  0  0  0
   -6.1755   -2.3809  -22.6031 H   0  0  0  0  0  0  0  0  0  0  0  0
   -6.7273   -3.3738  -21.2492 H   0  0  0  0  0  0  0  0  0  0  0  0
  -10.6003   -1.6473  -22.7884 C   0  0  0  0  0  0  0  0  0  0  0  0
  -11.2175   -2.5586  -21.9233 C   0  0  0  0  0  0  0  0  0  0  0  0
  -12.5954   -2.5967  -21.8207 C   0  0  0  0  0  0  0  0  0  0  0  0
  -13.3469   -3.7327  -20.7397 Cl  0  0  0  0  0  0  0  0  0  0  0  0
  -13.4064   -1.7314  -22.5535 C   0  0  0  0  0  0  0  0  0  0  0  0
  -12.8054   -0.7843  -23.3568 C   0  0  0  0  0  0  0  0  0  0  0  0
  -11.4154   -0.7173  -23.4531 C   0  0  0  0  0  0  0  0  0  0  0  0
  -10.8253    0.4341  -24.2162 C   0  0  0  0  0  0  0  0  0  0  0  0
  -11.5162    1.3354  -24.6653 O   0  0  0  0  0  0  0  0  0  0  0  0
  -13.3855   -0.0544  -23.9119 H   0  0  0  0  0  0  0  0  0  0  0  0
  -14.4845   -1.7958  -22.4634 H   0  0  0  0  0  0  0  0  0  0  0  0
  -10.6351   -3.2288  -21.3026 H   0  0  0  0  0  0  0  0  0  0  0  0
   -7.6622   -0.5758  -24.1947 H   0  0  0  0  0  0  0  0  0  0  0  0
   -8.9352   -1.5002  -25.0463 H   0  0  0  0  0  0  0  0  0  0  0  0
   -9.5395    2.2805  -25.1293 H   0  0  0  0  0  0  0  0  0  0  0  0
   -8.1271    1.3277  -25.6801 H   0  0  0  0  0  0  0  0  0  0  0  0
   -9.3484    2.7710  -22.5846 H   0  0  0  0  0  0  0  0  0  0  0  0
   -6.8464    2.4602  -21.3445 H   0  0  0  0  0  0  0  0  0  0  0  0
   -8.0756    3.6743  -20.8886 H   0  0  0  0  0  0  0  0  0  0  0  0
   -6.8100    4.0913  -22.0533 H   0  0  0  0  0  0  0  0  0  0  0  0
  1  2  1  0
  2  3  1  0
  3  4  2  0
  3  5  1  0
  5  6  1  0
  6  7  1  0
  8  7  1  6
  8  9  1  0
  9 10  2  0
  9 11  1  0
 11 12  1  0
 12 13  2  0
 13 14  1  0
 14 15  2  0
 15 16  1  0
 16 17  2  0
 17 18  1  0
 18 19  2  0
 19 20  1  0
 20 21  2  0
 20 22  1  0
 19 23  1  0
 18 24  1  0
 17 25  1  0
 15 26  1  0
 13 27  1  0
 11 28  1  0
 28 29  1  0
 29 30  1  0
 30 31  1  0
 31 32  1  0
 32 33  2  0
 33 34  1  0
 34 35  2  0
 35 36  1  0
 36 37  2  0
 36 38  1  0
 34 39  1  0
 33 40  1  0
 31 41  1  0
 30 42  1  0
 30 43  1  0
 29 44  1  1
 28 45  1  0
 28 46  1  0
  8 47  1  0
 47 48  2  0
 48 49  1  0
 49 50  1  0
 49 51  2  0
 51 52  1  0
 52 53  2  0
 53 54  1  0
 54 55  2  0
 52 56  1  0
 51 57  1  0
 48 58  1  0
  7 59  1  0
  7 60  1  0
  5 61  1  0
  5 62  1  0
  2 63  1  0
  1 64  1  0
  1 65  1  0
  1 66  1  0
 54  6  1  0
 29  8  1  0
 37 32  1  0
 53 47  1  0
 21 12  1  0
 21 16  1  0
M  END
>  <cnnaffinities>  (1) 
[7.09377, 6.97931]

>  <score>  (1) 
7.09377

>  <index>  (1) 
0

>  <Smiles>  (1) 
C(N(C(=O)C(N1C([C@@]2(C(=O)N(c3c(nc(c4c(c(c(c(c34)[H])[H])[H])[H])[H])[H])C([C@@]2(C(N(c2c(c(nc(n2)[H])[H])[H])[H])([H])[H])[H])([H])[H])c2c(c(Cl)c(c(c2C1=O)[H])[H])[H])([H])[H])([H])[H])[H])([H])([H])[H]

>  <h>  (1) 
<NA>

>  <Training>  (1) 
True

>  <Success>  (1) 
True

>  <enamine_searched>  (1) 
False

>  <enamine_id>  (1) 
nan

$$$$

     RDKit          3D

 68 73  0  0  0  0  0  0  0  0999 V2000
   -7.5308    3.2019  -21.6343 C   0  0  0  0  0  0  0  0  0  0  0  0
   -8.5159    2.8317  -22.6211 N   0  0  0  0  0  0  0  0  0  0  0  0
   -8.0428    2.1703  -23.7059 C   0  0  0  0  0  0  0  0  0  0  0  0
   -6.8395    2.0466  -23.8971 O   0  0  0  0  0  0  0  0  0  0  0  0
   -9.0415    1.5782  -24.6790 C   0  0  0  0  0  0  0  0  0  0  0  0
   -9.6597    0.3768  -24.1653 N   0  0  0  0  0  0  0  0  0  0  0  0
   -8.8715   -0.8400  -24.0862 C   0  0  0  0  0  0  0  0  0  0  0  0
   -9.1546   -1.6203  -22.7792 C   0  0  2  0  0  0  0  0  0  0  0  0
   -8.5998   -0.8282  -21.5727 C   0  0  0  0  0  0  0  0  0  0  0  0
   -9.1092    0.1342  -21.0349 O   0  0  0  0  0  0  0  0  0  0  0  0
   -7.4003   -1.3893  -21.1976 N   0  0  0  0  0  0  0  0  0  0  0  0
   -6.6013   -0.8172  -20.1750 C   0  0  0  0  0  0  0  0  0  0  0  0
   -6.9117   -1.0452  -18.8550 C   0  0  0  0  0  0  0  0  0  0  0  0
   -6.2064   -0.5480  -17.8134 N   0  0  0  0  0  0  0  0  0  0  0  0
   -5.1704    0.2085  -18.0816 C   0  0  0  0  0  0  0  0  0  0  0  0
   -4.7363    0.5273  -19.4003 C   0  0  0  0  0  0  0  0  0  0  0  0
   -3.6157    1.3673  -19.6408 C   0  0  0  0  0  0  0  0  0  0  0  0
   -3.2340    1.6683  -20.9219 C   0  0  0  0  0  0  0  0  0  0  0  0
   -3.9552    1.1439  -22.0166 C   0  0  0  0  0  0  0  0  0  0  0  0
   -5.0455    0.3284  -21.8097 C   0  0  0  0  0  0  0  0  0  0  0  0
   -5.4652   -0.0038  -20.4907 C   0  0  0  0  0  0  0  0  0  0  0  0
   -5.6069   -0.0328  -22.6658 H   0  0  0  0  0  0  0  0  0  0  0  0
   -3.6618    1.3911  -23.0327 H   0  0  0  0  0  0  0  0  0  0  0  0
   -2.3843    2.3222  -21.1010 H   0  0  0  0  0  0  0  0  0  0  0  0
   -3.0796    1.7672  -18.7855 H   0  0  0  0  0  0  0  0  0  0  0  0
   -4.6097    0.6073  -17.2365 H   0  0  0  0  0  0  0  0  0  0  0  0
   -7.7716   -1.6634  -18.6024 H   0  0  0  0  0  0  0  0  0  0  0  0
   -7.0317   -2.5675  -21.9557 C   0  0  0  0  0  0  0  0  0  0  0  0
   -8.3236   -2.9413  -22.7067 C   0  0  2  0  0  0  0  0  0  0  0  0
   -8.0601   -3.6595  -24.0424 C   0  0  0  0  0  0  0  0  0  0  0  0
   -7.4504   -4.9554  -23.8576 N   0  0  0  0  0  0  0  0  0  0  0  0
   -7.1042   -5.7575  -24.9368 C   0  0  0  0  0  0  0  0  0  0  0  0
   -6.4694   -7.0307  -24.9086 C   0  0  0  0  0  0  0  0  0  0  0  0
   -6.2824   -7.5069  -26.1327 N   0  0  0  0  0  0  0  0  0  0  0  0
   -6.7941   -6.5872  -26.9493 N   0  0  0  0  0  0  0  0  0  0  0  0
   -6.7353   -6.7646  -28.3773 C   0  0  0  0  0  0  0  0  0  0  0  0
   -5.8845   -6.2244  -28.8088 H   0  0  0  0  0  0  0  0  0  0  0  0
   -6.6211   -7.8322  -28.5708 H   0  0  0  0  0  0  0  0  0  0  0  0
   -7.6638   -6.4006  -28.8281 H   0  0  0  0  0  0  0  0  0  0  0  0
   -7.2913   -5.5120  -26.2822 C   0  0  0  0  0  0  0  0  0  0  0  0
   -7.7371   -4.6872  -26.8298 H   0  0  0  0  0  0  0  0  0  0  0  0
   -6.1301   -7.6204  -24.0662 H   0  0  0  0  0  0  0  0  0  0  0  0
   -7.2010   -5.2758  -22.9381 H   0  0  0  0  0  0  0  0  0  0  0  0
   -9.0027   -3.7790  -24.5980 H   0  0  0  0  0  0  0  0  0  0  0  0
   -7.4128   -3.0272  -24.6707 H   0  0  0  0  0  0  0  0  0  0  0  0
   -8.8810   -3.6387  -22.0787 H   0  0  0  0  0  0  0  0  0  0  0  0
   -6.2128   -2.3391  -22.6544 H   0  0  0  0  0  0  0  0  0  0  0  0
   -6.6895   -3.3608  -21.2812 H   0  0  0  0  0  0  0  0  0  0  0  0
  -10.6641   -1.7622  -22.6486 C   0  0  0  0  0  0  0  0  0  0  0  0
  -11.2207   -2.7352  -21.8106 C   0  0  0  0  0  0  0  0  0  0  0  0
  -12.5939   -2.8010  -21.6443 C   0  0  0  0  0  0  0  0  0  0  0  0
  -13.2731   -3.9556  -20.5314 Cl  0  0  0  0  0  0  0  0  0  0  0  0
  -13.4567   -1.9340  -22.3154 C   0  0  0  0  0  0  0  0  0  0  0  0
  -12.9205   -0.9410  -23.1107 C   0  0  0  0  0  0  0  0  0  0  0  0
  -11.5360   -0.8375  -23.2473 C   0  0  0  0  0  0  0  0  0  0  0  0
  -11.0173    0.3521  -23.9915 C   0  0  0  0  0  0  0  0  0  0  0  0
  -11.7595    1.2436  -24.3828 O   0  0  0  0  0  0  0  0  0  0  0  0
  -13.5408   -0.2059  -23.6191 H   0  0  0  0  0  0  0  0  0  0  0  0
  -14.5262   -2.0373  -22.1795 H   0  0  0  0  0  0  0  0  0  0  0  0
  -10.5903   -3.4284  -21.2652 H   0  0  0  0  0  0  0  0  0  0  0  0
   -9.1167   -1.4890  -24.9384 H   0  0  0  0  0  0  0  0  0  0  0  0
   -7.8140   -0.5611  -24.1450 H   0  0  0  0  0  0  0  0  0  0  0  0
   -8.4575    1.3588  -25.5776 H   0  0  0  0  0  0  0  0  0  0  0  0
   -9.8579    2.2693  -24.8937 H   0  0  0  0  0  0  0  0  0  0  0  0
   -9.4690    2.7438  -22.3069 H   0  0  0  0  0  0  0  0  0  0  0  0
   -8.0169    3.4518  -20.7038 H   0  0  0  0  0  0  0  0  0  0  0  0
   -6.8470    2.3757  -21.4501 H   0  0  0  0  0  0  0  0  0  0  0  0
   -6.9282    4.0342  -21.9869 H   0  0  0  0  0  0  0  0  0  0  0  0
  1  2  1  0
  2  3  1  0
  3  4  2  0
  3  5  1  0
  5  6  1  0
  6  7  1  0
  8  7  1  6
  8  9  1  0
  9 10  2  0
  9 11  1  0
 11 12  1  0
 12 13  2  0
 13 14  1  0
 14 15  2  0
 15 16  1  0
 16 17  2  0
 17 18  1  0
 18 19  2  0
 19 20  1  0
 20 21  2  0
 20 22  1  0
 19 23  1  0
 18 24  1  0
 17 25  1  0
 15 26  1  0
 13 27  1  0
 11 28  1  0
 28 29  1  0
 29 30  1  0
 30 31  1  0
 31 32  1  0
 32 33  1  0
 33 34  2  0
 34 35  1  0
 35 36  1  0
 36 37  1  0
 36 38  1  0
 36 39  1  0
 35 40  1  0
 40 41  1  0
 33 42  1  0
 31 43  1  0
 30 44  1  0
 30 45  1  0
 29 46  1  1
 28 47  1  0
 28 48  1  0
  8 49  1  0
 49 50  2  0
 50 51  1  0
 51 52  1  0
 51 53  2  0
 53 54  1  0
 54 55  2  0
 55 56  1  0
 56 57  2  0
 54 58  1  0
 53 59  1  0
 50 60  1  0
  7 61  1  0
  7 62  1  0
  5 63  1  0
  5 64  1  0
  2 65  1  0
  1 66  1  0
  1 67  1  0
  1 68  1  0
 56  6  1  0
 29  8  1  0
 40 32  2  0
 55 49  1  0
 21 12  1  0
 21 16  1  0
M  END
>  <cnnaffinities>  (2) 
[7.14907, 6.94545, 7.14355]

>  <score>  (2) 
7.14907

>  <index>  (2) 
1

>  <Smiles>  (2) 
C(N(C(=O)C(N1C([C@@]2(C(=O)N(c3c(nc(c4c(c(c(c(c34)[H])[H])[H])[H])[H])[H])C([C@@]2(C(N(c2c(nn(C([H])([H])[H])c2[H])[H])[H])([H])[H])[H])([H])[H])c2c(c(Cl)c(c(c2C1=O)[H])[H])[H])([H])[H])([H])[H])[H])([H])([H])[H]

>  <h>  (2) 
<NA>

>  <Training>  (2) 
True

>  <Success>  (2) 
True

>  <enamine_searched>  (2) 
False

>  <enamine_id>  (2) 
nan

$$$$

     RDKit          3D

 60 65  0  0  0  0  0  0  0  0999 V2000
   -9.4309    0.2177  -31.1552 C   0  0  0  0  0  0  0  0  0  0  0  0
   -9.2112    0.4370  -29.6918 C   0  0  0  0  0  0  0  0  0  0  0  0
   -9.9987    1.3438  -28.9761 C   0  0  0  0  0  0  0  0  0  0  0  0
   -9.8127    1.5566  -27.6817 N   0  0  0  0  0  0  0  0  0  0  0  0
   -8.8269    0.8794  -27.0838 C   0  0  0  0  0  0  0  0  0  0  0  0
   -8.6273    1.1512  -25.6152 C   0  0  0  0  0  0  0  0  0  0  0  0
   -9.3620    0.2251  -24.7790 N   0  0  0  0  0  0  0  0  0  0  0  0
   -8.7744   -1.0675  -24.4872 C   0  0  0  0  0  0  0  0  0  0  0  0
   -8.9768   -1.4730  -23.0084 C   0  0  2  0  0  0  0  0  0  0  0  0
   -8.1520   -0.5535  -22.0796 C   0  0  0  0  0  0  0  0  0  0  0  0
   -8.1494    0.6545  -22.0794 O   0  0  0  0  0  0  0  0  0  0  0  0
   -7.3807   -1.3382  -21.2446 N   0  0  0  0  0  0  0  0  0  0  0  0
   -6.5886   -0.8040  -20.2044 C   0  0  0  0  0  0  0  0  0  0  0  0
   -6.8871   -1.0666  -18.8894 C   0  0  0  0  0  0  0  0  0  0  0  0
   -6.2037   -0.5607  -17.8341 N   0  0  0  0  0  0  0  0  0  0  0  0
   -5.1758    0.2090  -18.0913 C   0  0  0  0  0  0  0  0  0  0  0  0
   -4.7317    0.5218  -19.4078 C   0  0  0  0  0  0  0  0  0  0  0  0
   -3.6018    1.3506  -19.6316 C   0  0  0  0  0  0  0  0  0  0  0  0
   -3.1809    1.6209  -20.9048 C   0  0  0  0  0  0  0  0  0  0  0  0
   -3.8619    1.0690  -22.0118 C   0  0  0  0  0  0  0  0  0  0  0  0
   -4.9574    0.2654  -21.8220 C   0  0  0  0  0  0  0  0  0  0  0  0
   -5.4377   -0.0083  -20.5081 C   0  0  0  0  0  0  0  0  0  0  0  0
   -5.4686   -0.1553  -22.6823 H   0  0  0  0  0  0  0  0  0  0  0  0
   -3.5199    1.2825  -23.0211 H   0  0  0  0  0  0  0  0  0  0  0  0
   -2.3240    2.2660  -21.0741 H   0  0  0  0  0  0  0  0  0  0  0  0
   -3.0879    1.7626  -18.7683 H   0  0  0  0  0  0  0  0  0  0  0  0
   -4.6251    0.6182  -17.2426 H   0  0  0  0  0  0  0  0  0  0  0  0
   -7.7482   -1.6885  -18.6420 H   0  0  0  0  0  0  0  0  0  0  0  0
   -7.6988   -2.7430  -21.3222 C   0  0  0  0  0  0  0  0  0  0  0  0
   -8.4302   -2.8980  -22.6713 C   0  0  2  0  0  0  0  0  0  0  0  0
   -7.5595   -3.5748  -23.7323 C   0  0  0  0  0  0  0  0  0  0  0  0
   -7.2611   -4.5726  -23.3898 H   0  0  0  0  0  0  0  0  0  0  0  0
   -6.6523   -3.0071  -23.9597 H   0  0  0  0  0  0  0  0  0  0  0  0
   -8.1230   -3.7177  -24.6592 H   0  0  0  0  0  0  0  0  0  0  0  0
   -9.2740   -3.5780  -22.5520 H   0  0  0  0  0  0  0  0  0  0  0  0
   -8.3511   -3.0334  -20.4911 H   0  0  0  0  0  0  0  0  0  0  0  0
   -6.7818   -3.3384  -21.2537 H   0  0  0  0  0  0  0  0  0  0  0  0
  -10.4704   -1.3296  -22.7339 C   0  0  0  0  0  0  0  0  0  0  0  0
  -11.1045   -2.1575  -21.8035 C   0  0  0  0  0  0  0  0  0  0  0  0
  -12.4676   -2.0395  -21.6271 C   0  0  0  0  0  0  0  0  0  0  0  0
  -13.0819   -2.9164  -20.8126 F   0  0  0  0  0  0  0  0  0  0  0  0
  -13.2262   -1.0308  -22.2129 C   0  0  0  0  0  0  0  0  0  0  0  0
  -12.5818   -0.1667  -23.0785 C   0  0  0  0  0  0  0  0  0  0  0  0
  -11.2391   -0.3596  -23.3909 C   0  0  0  0  0  0  0  0  0  0  0  0
  -10.6347    0.5507  -24.4071 C   0  0  0  0  0  0  0  0  0  0  0  0
  -11.2201    1.5372  -24.8392 O   0  0  0  0  0  0  0  0  0  0  0  0
  -13.0717    0.6802  -23.5431 H   0  0  0  0  0  0  0  0  0  0  0  0
  -14.2825   -0.9503  -21.9830 H   0  0  0  0  0  0  0  0  0  0  0  0
  -10.5622   -2.9057  -21.2308 H   0  0  0  0  0  0  0  0  0  0  0  0
   -9.2461   -1.8382  -25.1100 H   0  0  0  0  0  0  0  0  0  0  0  0
   -7.7108   -1.0330  -24.7449 H   0  0  0  0  0  0  0  0  0  0  0  0
   -9.0184    2.1476  -25.3963 H   0  0  0  0  0  0  0  0  0  0  0  0
   -7.5682    1.0909  -25.3208 H   0  0  0  0  0  0  0  0  0  0  0  0
   -8.0555   -0.0379  -27.7911 C   0  0  0  0  0  0  0  0  0  0  0  0
   -8.2395   -0.2556  -29.0954 N   0  0  0  0  0  0  0  0  0  0  0  0
   -7.2413   -0.5822  -27.3048 H   0  0  0  0  0  0  0  0  0  0  0  0
  -10.7886    1.9217  -29.4633 H   0  0  0  0  0  0  0  0  0  0  0  0
  -10.2541   -0.4824  -31.3327 H   0  0  0  0  0  0  0  0  0  0  0  0
   -9.6788    1.1590  -31.6513 H   0  0  0  0  0  0  0  0  0  0  0  0
   -8.5315   -0.2017  -31.6072 H   0  0  0  0  0  0  0  0  0  0  0  0
  1  2  1  0
  2  3  2  0
  3  4  1  0
  4  5  2  0
  5  6  1  0
  6  7  1  0
  7  8  1  0
  9  8  1  6
  9 10  1  0
 10 11  2  0
 10 12  1  0
 12 13  1  0
 13 14  2  0
 14 15  1  0
 15 16  2  0
 16 17  1  0
 17 18  2  0
 18 19  1  0
 19 20  2  0
 20 21  1  0
 21 22  2  0
 21 23  1  0
 20 24  1  0
 19 25  1  0
 18 26  1  0
 16 27  1  0
 14 28  1  0
 12 29  1  0
 29 30  1  0
 30 31  1  0
 31 32  1  0
 31 33  1  0
 31 34  1  0
 30 35  1  1
 29 36  1  0
 29 37  1  0
  9 38  1  0
 38 39  2  0
 39 40  1  0
 40 41  1  0
 40 42  2  0
 42 43  1  0
 43 44  2  0
 44 45  1  0
 45 46  2  0
 43 47  1  0
 42 48  1  0
 39 49  1  0
  8 50  1  0
  8 51  1  0
  6 52  1  0
  6 53  1  0
  5 54  1  0
 54 55  2  0
 54 56  1  0
  3 57  1  0
  1 58  1  0
  1 59  1  0
  1 60  1  0
 55  2  1  0
 45  7  1  0
 30  9  1  0
 44 38  1  0
 22 13  1  0
 22 17  1  0
M  END
>  <cnnaffinities>  (3) 
[5.84536, 6.65533]

>  <score>  (3) 
5.84536

>  <index>  (3) 
2

>  <Smiles>  (3) 
C(c1c(nc(C(N2C([C@@]3(C(=O)N(c4c(nc(c5c(c(c(c(c45)[H])[H])[H])[H])[H])[H])C([C@@]3(C([H])([H])[H])[H])([H])[H])c3c(c(F)c(c(c3C2=O)[H])[H])[H])([H])[H])([H])[H])c(n1)[H])[H])([H])([H])[H]

>  <h>  (3) 
<NA>

>  <Training>  (3) 
True

>  <Success>  (3) 
True

>  <enamine_searched>  (3) 
False

>  <enamine_id>  (3) 
nan

$$$$

     RDKit          3D

 66 70  0  0  0  0  0  0  0  0999 V2000
   -7.4415    3.2931  -21.6890 C   0  0  0  0  0  0  0  0  0  0  0  0
   -8.3500    2.9009  -22.7431 N   0  0  0  0  0  0  0  0  0  0  0  0
   -7.8192    2.2420  -23.7967 C   0  0  0  0  0  0  0  0  0  0  0  0
   -6.6131    2.1315  -23.9457 O   0  0  0  0  0  0  0  0  0  0  0  0
   -8.7853    1.6436  -24.8117 C   0  0  0  0  0  0  0  0  0  0  0  0
   -9.4665    0.4627  -24.3242 N   0  0  0  0  0  0  0  0  0  0  0  0
   -8.7050   -0.7639  -24.1764 C   0  0  0  0  0  0  0  0  0  0  0  0
   -9.0683   -1.5191  -22.8767 C   0  0  2  0  0  0  0  0  0  0  0  0
   -8.5389   -0.7509  -21.6428 C   0  0  0  0  0  0  0  0  0  0  0  0
   -9.0182    0.2391  -21.1278 O   0  0  0  0  0  0  0  0  0  0  0  0
   -7.4019   -1.3792  -21.1974 N   0  0  0  0  0  0  0  0  0  0  0  0
   -6.6021   -0.8091  -20.1737 C   0  0  0  0  0  0  0  0  0  0  0  0
   -6.9122   -1.0404  -18.8569 C   0  0  0  0  0  0  0  0  0  0  0  0
   -6.2061   -0.5455  -17.8147 N   0  0  0  0  0  0  0  0  0  0  0  0
   -5.1700    0.2091  -18.0816 C   0  0  0  0  0  0  0  0  0  0  0  0
   -4.7343    0.5303  -19.3998 C   0  0  0  0  0  0  0  0  0  0  0  0
   -3.6077    1.3634  -19.6425 C   0  0  0  0  0  0  0  0  0  0  0  0
   -3.2209    1.6577  -20.9224 C   0  0  0  0  0  0  0  0  0  0  0  0
   -3.9456    1.1348  -22.0178 C   0  0  0  0  0  0  0  0  0  0  0  0
   -5.0395    0.3270  -21.8079 C   0  0  0  0  0  0  0  0  0  0  0  0
   -5.4661    0.0026  -20.4895 C   0  0  0  0  0  0  0  0  0  0  0  0
   -5.5984   -0.0446  -22.6619 H   0  0  0  0  0  0  0  0  0  0  0  0
   -3.6559    1.3791  -23.0350 H   0  0  0  0  0  0  0  0  0  0  0  0
   -2.3685    2.3088  -21.1000 H   0  0  0  0  0  0  0  0  0  0  0  0
   -3.0744    1.7644  -18.7848 H   0  0  0  0  0  0  0  0  0  0  0  0
   -4.6131    0.6070  -17.2330 H   0  0  0  0  0  0  0  0  0  0  0  0
   -7.7699   -1.6607  -18.6035 H   0  0  0  0  0  0  0  0  0  0  0  0
   -7.0421   -2.5683  -21.9431 C   0  0  0  0  0  0  0  0  0  0  0  0
   -8.3040   -2.8752  -22.7690 C   0  0  2  0  0  0  0  0  0  0  0  0
   -7.9721   -3.6134  -24.0738 C   0  0  0  0  0  0  0  0  0  0  0  0
   -9.1145   -3.9439  -24.8315 O   0  0  0  0  0  0  0  0  0  0  0  0
   -9.6954   -5.2128  -24.5491 C   0  0  0  0  0  0  0  0  0  0  0  0
  -11.1895   -5.0659  -24.7530 C   0  0  0  0  0  0  0  0  0  0  0  0
  -11.6925   -6.0166  -24.5535 H   0  0  0  0  0  0  0  0  0  0  0  0
  -11.5963   -4.3024  -24.0841 H   0  0  0  0  0  0  0  0  0  0  0  0
  -11.3992   -4.7585  -25.7805 H   0  0  0  0  0  0  0  0  0  0  0  0
   -9.0745   -6.3011  -25.4175 C   0  0  0  0  0  0  0  0  0  0  0  0
   -9.5085   -7.2751  -25.1824 H   0  0  0  0  0  0  0  0  0  0  0  0
   -7.9977   -6.3841  -25.2542 H   0  0  0  0  0  0  0  0  0  0  0  0
   -9.2347   -6.1127  -26.4768 H   0  0  0  0  0  0  0  0  0  0  0  0
   -9.5019   -5.4566  -23.4965 H   0  0  0  0  0  0  0  0  0  0  0  0
   -7.3948   -4.5217  -23.8468 H   0  0  0  0  0  0  0  0  0  0  0  0
   -7.3377   -2.9809  -24.7086 H   0  0  0  0  0  0  0  0  0  0  0  0
   -8.9541   -3.5320  -22.1876 H   0  0  0  0  0  0  0  0  0  0  0  0
   -6.1749   -2.3740  -22.5917 H   0  0  0  0  0  0  0  0  0  0  0  0
   -6.7698   -3.3824  -21.2629 H   0  0  0  0  0  0  0  0  0  0  0  0
  -10.5822   -1.6139  -22.8121 C   0  0  0  0  0  0  0  0  0  0  0  0
  -11.1898   -2.5300  -21.9445 C   0  0  0  0  0  0  0  0  0  0  0  0
  -12.5683   -2.5799  -21.8430 C   0  0  0  0  0  0  0  0  0  0  0  0
  -13.3072   -3.7131  -20.7418 Cl  0  0  0  0  0  0  0  0  0  0  0  0
  -13.3858   -1.7334  -22.5946 C   0  0  0  0  0  0  0  0  0  0  0  0
  -12.7982   -0.7851  -23.4105 C   0  0  0  0  0  0  0  0  0  0  0  0
  -11.4083   -0.7047  -23.4909 C   0  0  0  0  0  0  0  0  0  0  0  0
  -10.8319    0.4553  -24.2437 C   0  0  0  0  0  0  0  0  0  0  0  0
  -11.5396    1.3426  -24.7080 O   0  0  0  0  0  0  0  0  0  0  0  0
  -13.3777   -0.0617  -23.9810 H   0  0  0  0  0  0  0  0  0  0  0  0
  -14.4623   -1.8109  -22.5036 H   0  0  0  0  0  0  0  0  0  0  0  0
  -10.5930   -3.1767  -21.3111 H   0  0  0  0  0  0  0  0  0  0  0  0
   -8.9080   -1.4389  -25.0200 H   0  0  0  0  0  0  0  0  0  0  0  0
   -7.6461   -0.4897  -24.1681 H   0  0  0  0  0  0  0  0  0  0  0  0
   -9.5829    2.3409  -25.0714 H   0  0  0  0  0  0  0  0  0  0  0  0
   -8.1713    1.4043  -25.6870 H   0  0  0  0  0  0  0  0  0  0  0  0
   -9.3243    2.7833  -22.5210 H   0  0  0  0  0  0  0  0  0  0  0  0
   -6.7984    2.4540  -21.4174 H   0  0  0  0  0  0  0  0  0  0  0  0
   -6.7968    4.1021  -22.0274 H   0  0  0  0  0  0  0  0  0  0  0  0
   -8.0154    3.6021  -20.8285 H   0  0  0  0  0  0  0  0  0  0  0  0
  1  2  1  0
  2  3  1  0
  3  4  2  0
  3  5  1  0
  5  6  1  0
  6  7  1  0
  8  7  1  6
  8  9  1  0
  9 10  2  0
  9 11  1  0
 11 12  1  0
 12 13  2  0
 13 14  1  0
 14 15  2  0
 15 16  1  0
 16 17  2  0
 17 18  1  0
 18 19  2  0
 19 20  1  0
 20 21  2  0
 20 22  1  0
 19 23  1  0
 18 24  1  0
 17 25  1  0
 15 26  1  0
 13 27  1  0
 11 28  1  0
 28 29  1  0
 29 30  1  0
 30 31  1  0
 31 32  1  0
 32 33  1  0
 33 34  1  0
 33 35  1  0
 33 36  1  0
 32 37  1  0
 37 38  1  0
 37 39  1  0
 37 40  1  0
 32 41  1  0
 30 42  1  0
 30 43  1  0
 29 44  1  1
 28 45  1  0
 28 46  1  0
  8 47  1  0
 47 48  2  0
 48 49  1  0
 49 50  1  0
 49 51  2  0
 51 52  1  0
 52 53  2  0
 53 54  1  0
 54 55  2  0
 52 56  1  0
 51 57  1  0
 48 58  1  0
  7 59  1  0
  7 60  1  0
  5 61  1  0
  5 62  1  0
  2 63  1  0
  1 64  1  0
  1 65  1  0
  1 66  1  0
 54  6  1  0
 29  8  1  0
 53 47  1  0
 21 12  1  0
 21 16  1  0
M  END
>  <cnnaffinities>  (4) 
[6.4844, 6.3911, 6.35695, 6.37981, 6.61474]

>  <score>  (4) 
6.4844

>  <index>  (4) 
3

>  <Smiles>  (4) 
C(N(C(=O)C(N1C([C@@]2(C(=O)N(c3c(nc(c4c(c(c(c(c34)[H])[H])[H])[H])[H])[H])C([C@@]2(C(OC(C([H])([H])[H])(C([H])([H])[H])[H])([H])[H])[H])([H])[H])c2c(c(Cl)c(c(c2C1=O)[H])[H])[H])([H])[H])([H])[H])[H])([H])([H])[H]

>  <h>  (4) 
<NA>

>  <Training>  (4) 
True

>  <Success>  (4) 
True

>  <enamine_searched>  (4) 
False

>  <enamine_id>  (4) 
nan

$$$$

     RDKit          3D

 59 64  0  0  0  0  0  0  0  0999 V2000
   -8.0731   -3.8366  -23.8631 C   0  0  0  0  0  0  0  0  0  0  0  0
   -8.4152   -2.8529  -22.7346 C   0  0  1  0  0  0  0  0  0  0  0  0
   -7.2611   -2.7006  -21.7210 C   0  0  0  0  0  0  0  0  0  0  0  0
   -7.4331   -1.3581  -21.1974 N   0  0  0  0  0  0  0  0  0  0  0  0
   -6.6117   -0.7988  -20.1828 C   0  0  0  0  0  0  0  0  0  0  0  0
   -6.8957   -1.0493  -18.8647 C   0  0  0  0  0  0  0  0  0  0  0  0
   -6.1878   -0.5556  -17.8225 N   0  0  0  0  0  0  0  0  0  0  0  0
   -5.1602    0.2114  -18.0884 C   0  0  0  0  0  0  0  0  0  0  0  0
   -4.7340    0.5344  -19.4074 C   0  0  0  0  0  0  0  0  0  0  0  0
   -3.6004    1.3602  -19.6449 C   0  0  0  0  0  0  0  0  0  0  0  0
   -3.2016    1.6395  -20.9247 C   0  0  0  0  0  0  0  0  0  0  0  0
   -3.9119    1.0958  -22.0203 C   0  0  0  0  0  0  0  0  0  0  0  0
   -5.0097    0.2968  -21.8144 C   0  0  0  0  0  0  0  0  0  0  0  0
   -5.4675    0.0098  -20.4945 C   0  0  0  0  0  0  0  0  0  0  0  0
   -5.5389   -0.1191  -22.6676 H   0  0  0  0  0  0  0  0  0  0  0  0
   -3.6069    1.3147  -23.0396 H   0  0  0  0  0  0  0  0  0  0  0  0
   -2.3471    2.2882  -21.0977 H   0  0  0  0  0  0  0  0  0  0  0  0
   -3.0729    1.7693  -18.7876 H   0  0  0  0  0  0  0  0  0  0  0  0
   -4.6169    0.6147  -17.2343 H   0  0  0  0  0  0  0  0  0  0  0  0
   -7.7430   -1.6777  -18.5984 H   0  0  0  0  0  0  0  0  0  0  0  0
   -8.2408   -0.5598  -21.9730 C   0  0  0  0  0  0  0  0  0  0  0  0
   -8.4379    0.6204  -21.7503 O   0  0  0  0  0  0  0  0  0  0  0  0
   -8.7928   -1.3928  -23.1525 C   0  0  1  0  0  0  0  0  0  0  0  0
   -8.0682   -0.9688  -24.4553 C   0  0  0  0  0  0  0  0  0  0  0  0
   -8.4356    0.3707  -24.8665 N   0  0  0  0  0  0  0  0  0  0  0  0
   -7.3864    1.3710  -25.0200 C   0  0  0  0  0  0  0  0  0  0  0  0
   -6.2953    0.9680  -25.9722 C   0  0  0  0  0  0  0  0  0  0  0  0
   -5.0446    0.7301  -25.6281 N   0  0  0  0  0  0  0  0  0  0  0  0
   -4.4145    0.3488  -26.7844 C   0  0  0  0  0  0  0  0  0  0  0  0
   -5.2915    0.3655  -27.8301 C   0  0  0  0  0  0  0  0  0  0  0  0
   -6.5003    0.7709  -27.3052 N   0  0  0  0  0  0  0  0  0  0  0  0
   -7.7495    0.9192  -28.0285 C   0  0  0  0  0  0  0  0  0  0  0  0
   -8.4592    0.1318  -27.7536 H   0  0  0  0  0  0  0  0  0  0  0  0
   -8.2045    1.8954  -27.8263 H   0  0  0  0  0  0  0  0  0  0  0  0
   -7.5261    0.8460  -29.0963 H   0  0  0  0  0  0  0  0  0  0  0  0
   -5.1927    0.1266  -28.8804 H   0  0  0  0  0  0  0  0  0  0  0  0
   -3.3641    0.0708  -26.7789 H   0  0  0  0  0  0  0  0  0  0  0  0
   -7.8930    2.2864  -25.3421 H   0  0  0  0  0  0  0  0  0  0  0  0
   -6.9084    1.5534  -24.0466 H   0  0  0  0  0  0  0  0  0  0  0  0
   -9.7524    0.7120  -25.0086 C   0  0  0  0  0  0  0  0  0  0  0  0
  -10.1246    1.6640  -25.6854 O   0  0  0  0  0  0  0  0  0  0  0  0
  -10.7231   -0.1446  -24.2444 C   0  0  0  0  0  0  0  0  0  0  0  0
  -12.0854    0.1234  -24.3931 C   0  0  0  0  0  0  0  0  0  0  0  0
  -13.0218   -0.5301  -23.6178 C   0  0  0  0  0  0  0  0  0  0  0  0
  -12.5631   -1.4211  -22.6567 C   0  0  0  0  0  0  0  0  0  0  0  0
  -13.4604   -2.0155  -21.8527 F   0  0  0  0  0  0  0  0  0  0  0  0
  -11.2231   -1.7102  -22.4876 C   0  0  0  0  0  0  0  0  0  0  0  0
  -10.2768   -1.1118  -23.3303 C   0  0  0  0  0  0  0  0  0  0  0  0
  -10.9483   -2.3755  -21.6769 H   0  0  0  0  0  0  0  0  0  0  0  0
  -14.0861   -0.3437  -23.7107 H   0  0  0  0  0  0  0  0  0  0  0  0
  -12.3741    0.8845  -25.1055 H   0  0  0  0  0  0  0  0  0  0  0  0
   -6.9865   -0.9775  -24.3020 H   0  0  0  0  0  0  0  0  0  0  0  0
   -8.3194   -1.6784  -25.2577 H   0  0  0  0  0  0  0  0  0  0  0  0
   -7.3057   -3.4327  -20.9088 H   0  0  0  0  0  0  0  0  0  0  0  0
   -6.2827   -2.8238  -22.2143 H   0  0  0  0  0  0  0  0  0  0  0  0
   -9.2790   -3.2478  -22.1933 H   0  0  0  0  0  0  0  0  0  0  0  0
   -7.9021   -4.8455  -23.4670 H   0  0  0  0  0  0  0  0  0  0  0  0
   -8.8749   -3.9024  -24.6082 H   0  0  0  0  0  0  0  0  0  0  0  0
   -7.1577   -3.5354  -24.3898 H   0  0  0  0  0  0  0  0  0  0  0  0
  1  2  1  0
  2  3  1  0
  3  4  1  0
  4  5  1  0
  5  6  2  0
  6  7  1  0
  7  8  2  0
  8  9  1  0
  9 10  2  0
 10 11  1  0
 11 12  2  0
 12 13  1  0
 13 14  2  0
 13 15  1  0
 12 16  1  0
 11 17  1  0
 10 18  1  0
  8 19  1  0
  6 20  1  0
  4 21  1  0
 21 22  2  0
 21 23  1  0
 23 24  1  6
 24 25  1  0
 25 26  1  0
 26 27  1  0
 27 28  2  0
 28 29  1  0
 29 30  2  0
 30 31  1  0
 31 32  1  0
 32 33  1  0
 32 34  1  0
 32 35  1  0
 30 36  1  0
 29 37  1  0
 26 38  1  0
 26 39  1  0
 25 40  1  0
 40 41  2  0
 40 42  1  0
 42 43  2  0
 43 44  1  0
 44 45  2  0
 45 46  1  0
 45 47  1  0
 47 48  2  0
 47 49  1  0
 44 50  1  0
 43 51  1  0
 24 52  1  0
 24 53  1  0
  3 54  1  0
  3 55  1  0
  2 56  1  1
  1 57  1  0
  1 58  1  0
  1 59  1  0
 23  2  1  0
 31 27  1  0
 48 42  1  0
 14  5  1  0
 48 23  1  0
 14  9  1  0
M  END
>  <cnnaffinities>  (5) 
[6.52296, 5.68762, 6.50742]

>  <score>  (5) 
6.52296

>  <index>  (5) 
4

>  <Smiles>  (5) 
C([C@]1(C(N(c2c(nc(c3c(c(c(c(c23)[H])[H])[H])[H])[H])[H])C(=O)[C@]21C(N(C(c1nc(c(n1C([H])([H])[H])[H])[H])([H])[H])C(=O)c1c(c(c(F)c(c21)[H])[H])[H])([H])[H])([H])[H])[H])([H])([H])[H]

>  <h>  (5) 
<NA>

>  <Training>  (5) 
True

>  <Success>  (5) 
True

>  <enamine_searched>  (5) 
False

>  <enamine_id>  (5) 
nan

$$$$

     RDKit          3D

 58 61  0  0  0  0  0  0  0  0999 V2000
   -8.0227   -4.6520  -21.9872 C   0  0  0  0  0  0  0  0  0  0  0  0
   -7.0106   -3.8593  -21.6447 C   0  0  0  0  0  0  0  0  0  0  0  0
   -6.7263   -2.4472  -22.0477 C   0  0  0  0  0  0  0  0  0  0  0  0
   -7.3741   -1.4003  -21.2486 N   0  0  0  0  0  0  0  0  0  0  0  0
   -8.6102   -0.8021  -21.4907 C   0  0  0  0  0  0  0  0  0  0  0  0
   -9.0709    0.0003  -20.7060 O   0  0  0  0  0  0  0  0  0  0  0  0
   -9.3268   -1.1123  -22.8066 C   0  0  2  0  0  0  0  0  0  0  0  0
   -8.7226   -0.2427  -23.9204 C   0  0  0  0  0  0  0  0  0  0  0  0
   -9.0554    1.1509  -23.6671 N   0  0  0  0  0  0  0  0  0  0  0  0
   -8.0111    2.1548  -23.7160 C   0  0  0  0  0  0  0  0  0  0  0  0
   -7.4998    2.3296  -25.1428 C   0  0  0  0  0  0  0  0  0  0  0  0
   -6.4455    1.8471  -25.5311 O   0  0  0  0  0  0  0  0  0  0  0  0
   -8.3377    3.0188  -25.9549 N   0  0  0  0  0  0  0  0  0  0  0  0
   -7.9784    3.2140  -27.3436 C   0  0  0  0  0  0  0  0  0  0  0  0
   -7.0280    3.7528  -27.4140 H   0  0  0  0  0  0  0  0  0  0  0  0
   -7.8535    2.2541  -27.8576 H   0  0  0  0  0  0  0  0  0  0  0  0
   -8.7600    3.7932  -27.8392 H   0  0  0  0  0  0  0  0  0  0  0  0
   -9.2517    3.2829  -25.6114 H   0  0  0  0  0  0  0  0  0  0  0  0
   -7.1751    1.8579  -23.0724 H   0  0  0  0  0  0  0  0  0  0  0  0
   -8.4499    3.0843  -23.3384 H   0  0  0  0  0  0  0  0  0  0  0  0
  -10.3546    1.5485  -23.5236 C   0  0  0  0  0  0  0  0  0  0  0  0
  -10.7195    2.6923  -23.7863 O   0  0  0  0  0  0  0  0  0  0  0  0
  -11.2795    0.4889  -23.0110 C   0  0  0  0  0  0  0  0  0  0  0  0
  -12.6294    0.7994  -22.8438 C   0  0  0  0  0  0  0  0  0  0  0  0
  -13.5180   -0.1665  -22.4057 C   0  0  0  0  0  0  0  0  0  0  0  0
  -13.0389   -1.4422  -22.1082 C   0  0  0  0  0  0  0  0  0  0  0  0
  -14.1559   -2.6600  -21.5620 Cl  0  0  0  0  0  0  0  0  0  0  0  0
  -11.6912   -1.7478  -22.2321 C   0  0  0  0  0  0  0  0  0  0  0  0
  -10.7968   -0.7837  -22.6974 C   0  0  0  0  0  0  0  0  0  0  0  0
  -11.3346   -2.7377  -21.9586 H   0  0  0  0  0  0  0  0  0  0  0  0
  -14.5732    0.0576  -22.2853 H   0  0  0  0  0  0  0  0  0  0  0  0
  -12.9598    1.8098  -23.0635 H   0  0  0  0  0  0  0  0  0  0  0  0
   -9.1160   -0.5642  -24.8944 H   0  0  0  0  0  0  0  0  0  0  0  0
   -7.6326   -0.3139  -23.9676 H   0  0  0  0  0  0  0  0  0  0  0  0
   -9.2124   -2.1754  -23.0291 H   0  0  0  0  0  0  0  0  0  0  0  0
   -6.6078   -0.8163  -20.2030 C   0  0  0  0  0  0  0  0  0  0  0  0
   -6.9410   -1.0376  -18.8946 C   0  0  0  0  0  0  0  0  0  0  0  0
   -6.2385   -0.5528  -17.8455 N   0  0  0  0  0  0  0  0  0  0  0  0
   -5.1821    0.1817  -18.0963 C   0  0  0  0  0  0  0  0  0  0  0  0
   -4.7302    0.5025  -19.4085 C   0  0  0  0  0  0  0  0  0  0  0  0
   -3.5967    1.3301  -19.6460 C   0  0  0  0  0  0  0  0  0  0  0  0
   -3.2071    1.6311  -20.9223 C   0  0  0  0  0  0  0  0  0  0  0  0
   -3.9313    1.1217  -22.0229 C   0  0  0  0  0  0  0  0  0  0  0  0
   -5.0359    0.3314  -21.8166 C   0  0  0  0  0  0  0  0  0  0  0  0
   -5.4592   -0.0127  -20.5024 C   0  0  0  0  0  0  0  0  0  0  0  0
   -5.5921   -0.0299  -22.6763 H   0  0  0  0  0  0  0  0  0  0  0  0
   -3.6235    1.3557  -23.0374 H   0  0  0  0  0  0  0  0  0  0  0  0
   -2.3537    2.2799  -21.0988 H   0  0  0  0  0  0  0  0  0  0  0  0
   -3.0639    1.7346  -18.7897 H   0  0  0  0  0  0  0  0  0  0  0  0
   -4.6310    0.5608  -17.2345 H   0  0  0  0  0  0  0  0  0  0  0  0
   -7.8264   -1.6239  -18.6532 H   0  0  0  0  0  0  0  0  0  0  0  0
   -6.8855   -2.2662  -23.1153 H   0  0  0  0  0  0  0  0  0  0  0  0
   -5.6590   -2.4429  -21.7616 H   0  0  0  0  0  0  0  0  0  0  0  0
   -5.7637   -4.3362  -20.8427 C   0  0  0  0  0  0  0  0  0  0  0  0
   -4.8886   -3.4449  -20.7207 O   0  0  0  0  0  0  0  0  0  0  0  0
   -5.6684   -5.4772  -20.3850 O   0  0  0  0  0  1  0  0  0  0  0  0
   -8.7844   -4.2897  -22.6733 H   0  0  0  0  0  0  0  0  0  0  0  0
   -8.1413   -5.6700  -21.6174 H   0  0  0  0  0  0  0  0  0  0  0  0
  1  2  2  0
  2  3  1  0
  3  4  1  0
  4  5  1  0
  5  6  2  0
  5  7  1  0
  7  8  1  0
  8  9  1  0
  9 10  1  0
 10 11  1  0
 11 12  2  0
 11 13  1  0
 13 14  1  0
 14 15  1  0
 14 16  1  0
 14 17  1  0
 13 18  1  0
 10 19  1  0
 10 20  1  0
  9 21  1  0
 21 22  2  0
 21 23  1  0
 23 24  2  0
 24 25  1  0
 25 26  2  0
 26 27  1  0
 26 28  1  0
 28 29  2  0
 28 30  1  0
 25 31  1  0
 24 32  1  0
  8 33  1  0
  8 34  1  0
  7 35  1  6
  4 36  1  0
 36 37  2  0
 37 38  1  0
 38 39  2  0
 39 40  1  0
 40 41  2  0
 41 42  1  0
 42 43  2  0
 43 44  1  0
 44 45  2  0
 44 46  1  0
 43 47  1  0
 42 48  1  0
 41 49  1  0
 39 50  1  0
 37 51  1  0
  3 52  1  0
  3 53  1  0
  2 54  1  0
 54 55  2  0
 54 56  1  0
  1 57  1  0
  1 58  1  0
 29  7  1  0
 45 36  1  0
 29 23  1  0
 45 40  1  0
M  CHG  1  56  -1
M  END
>  <cnnaffinities>  (6) 
[6.1356]

>  <score>  (6) 
6.1356

>  <index>  (6) 
5

>  <Smiles>  (6) 
C(=C(C(N(C(=O)[C@@]1(C(N(C(C(=O)N(C([H])([H])[H])[H])([H])[H])C(=O)c2c(c(c(Cl)c(c12)[H])[H])[H])([H])[H])[H])c1c(nc(c2c(c(c(c(c12)[H])[H])[H])[H])[H])[H])([H])[H])C(=O)[O-])([H])[H]

>  <h>  (6) 
<NA>

>  <Training>  (6) 
True

>  <Success>  (6) 
True

>  <enamine_searched>  (6) 
False

>  <enamine_id>  (6) 
nan

$$$$

     RDKit          3D

 43 45  0  0  0  0  0  0  0  0999 V2000
   -9.2652   -8.1563  -25.0164 C   0  0  0  0  0  0  0  0  0  0  0  0
   -9.3266   -6.6221  -25.1493 C   0  0  0  0  0  0  0  0  0  0  0  0
   -8.9942   -5.8153  -23.8797 C   0  0  0  0  0  0  0  0  0  0  0  0
   -7.5422   -5.9841  -23.4275 C   0  0  0  0  0  0  0  0  0  0  0  0
   -7.2585   -5.1635  -22.1751 C   0  0  0  0  0  0  0  0  0  0  0  0
   -7.6208   -3.7587  -22.3213 N   0  0  0  0  0  0  0  0  0  0  0  0
   -6.7865   -2.8182  -21.7622 C   0  0  0  0  0  0  0  0  0  0  0  0
   -5.5903   -3.0298  -21.6336 O   0  0  0  0  0  0  0  0  0  0  0  0
   -7.4103   -1.4934  -21.2634 C   0  0  0  0  0  0  0  0  0  0  0  0
   -6.5808   -0.8318  -20.1859 C   0  0  0  0  0  0  0  0  0  0  0  0
   -6.8753   -1.0459  -18.8646 C   0  0  0  0  0  0  0  0  0  0  0  0
   -6.1863   -0.5391  -17.8111 N   0  0  0  0  0  0  0  0  0  0  0  0
   -5.1537    0.2202  -18.0743 C   0  0  0  0  0  0  0  0  0  0  0  0
   -4.7196    0.5290  -19.3905 C   0  0  0  0  0  0  0  0  0  0  0  0
   -3.5915    1.3556  -19.6233 C   0  0  0  0  0  0  0  0  0  0  0  0
   -3.1877    1.6321  -20.9032 C   0  0  0  0  0  0  0  0  0  0  0  0
   -3.9002    1.0841  -21.9948 C   0  0  0  0  0  0  0  0  0  0  0  0
   -4.9935    0.2800  -21.7911 C   0  0  0  0  0  0  0  0  0  0  0  0
   -5.4429   -0.0148  -20.4769 C   0  0  0  0  0  0  0  0  0  0  0  0
   -5.5176   -0.1517  -22.6375 H   0  0  0  0  0  0  0  0  0  0  0  0
   -3.5804    1.3054  -23.0085 H   0  0  0  0  0  0  0  0  0  0  0  0
   -2.3324    2.2735  -21.0808 H   0  0  0  0  0  0  0  0  0  0  0  0
   -3.0704    1.7661  -18.7635 H   0  0  0  0  0  0  0  0  0  0  0  0
   -4.6105    0.6262  -17.2209 H   0  0  0  0  0  0  0  0  0  0  0  0
   -7.7226   -1.6676  -18.5782 H   0  0  0  0  0  0  0  0  0  0  0  0
   -7.5600   -0.8126  -22.1135 H   0  0  0  0  0  0  0  0  0  0  0  0
   -8.4109   -1.7072  -20.8630 H   0  0  0  0  0  0  0  0  0  0  0  0
   -8.9713   -3.5060  -22.7978 C   0  0  0  0  0  0  0  0  0  0  0  0
   -9.2633   -4.3152  -24.0680 C   0  0  0  0  0  0  0  0  0  0  0  0
   -8.6461   -3.9412  -24.9004 H   0  0  0  0  0  0  0  0  0  0  0  0
  -10.3136   -4.1616  -24.3444 H   0  0  0  0  0  0  0  0  0  0  0  0
   -9.7150   -3.7720  -22.0243 H   0  0  0  0  0  0  0  0  0  0  0  0
   -9.0683   -2.4364  -23.0047 H   0  0  0  0  0  0  0  0  0  0  0  0
   -7.8364   -5.6187  -21.3552 H   0  0  0  0  0  0  0  0  0  0  0  0
   -6.2021   -5.1737  -21.9047 H   0  0  0  0  0  0  0  0  0  0  0  0
   -6.8636   -5.6869  -24.2419 H   0  0  0  0  0  0  0  0  0  0  0  0
   -7.3475   -7.0387  -23.1959 H   0  0  0  0  0  0  0  0  0  0  0  0
   -9.6469   -6.1611  -23.0636 H   0  0  0  0  0  0  0  0  0  0  0  0
  -10.3088   -6.2907  -25.5112 H   0  0  0  0  0  0  0  0  0  0  0  0
   -8.6126   -6.3088  -25.9300 H   0  0  0  0  0  0  0  0  0  0  0  0
   -9.8673   -8.5921  -24.2105 H   0  0  0  0  0  0  0  0  0  0  0  0
   -8.2328   -8.4597  -24.8352 H   0  0  0  0  0  0  0  0  0  0  0  0
   -9.5908   -8.6352  -25.9470 H   0  0  0  0  0  0  0  0  0  0  0  0
  1  2  1  0
  2  3  1  0
  3  4  1  0
  4  5  1  0
  5  6  1  0
  6  7  1  0
  7  8  2  0
  7  9  1  0
  9 10  1  0
 10 11  2  0
 11 12  1  0
 12 13  2  0
 13 14  1  0
 14 15  2  0
 15 16  1  0
 16 17  2  0
 17 18  1  0
 18 19  2  0
 18 20  1  0
 17 21  1  0
 16 22  1  0
 15 23  1  0
 13 24  1  0
 11 25  1  0
  9 26  1  0
  9 27  1  0
  6 28  1  0
 28 29  1  0
 29 30  1  0
 29 31  1  0
 28 32  1  0
 28 33  1  0
  5 34  1  0
  5 35  1  0
  4 36  1  0
  4 37  1  0
  3 38  1  0
  2 39  1  0
  2 40  1  0
  1 41  1  0
  1 42  1  0
  1 43  1  0
 29  3  1  0
 19 10  1  0
 19 14  1  0
M  END
>  <cnnaffinities>  (7) 
[4.59621, 4.59433]

>  <score>  (7) 
4.59621

>  <index>  (7) 
6

>  <Smiles>  (7) 
C(C(C1(C(C(N(C(=O)C(c2c(nc(c3c(c(c(c(c23)[H])[H])[H])[H])[H])[H])([H])[H])C(C1([H])[H])([H])[H])([H])[H])([H])[H])[H])([H])[H])([H])([H])[H]

>  <h>  (7) 
<NA>

>  <Training>  (7) 
True

>  <Success>  (7) 
True

>  <enamine_searched>  (7) 
False

>  <enamine_id>  (7) 
nan

$$$$

     RDKit          3D

 44 47  0  0  0  0  0  0  0  0999 V2000
  -13.9397   -2.1657  -24.3902 C   0  0  0  0  0  0  0  0  0  0  0  0
  -12.9073   -3.1230  -24.9737 C   0  0  0  0  0  0  0  0  0  0  0  0
  -12.0905   -4.0826  -23.7163 S   0  0  0  0  0  0  0  0  0  0  0  0
  -13.1331   -4.5669  -22.8319 O   0  0  0  0  0  0  0  0  0  0  0  0
  -11.1985   -5.0134  -24.3947 O   0  0  0  0  0  0  0  0  0  0  0  0
  -11.1724   -2.9569  -22.8591 N   0  0  0  0  0  0  0  0  0  0  0  0
  -10.1673   -2.0782  -23.5055 C   0  0  0  0  0  0  0  0  0  0  0  0
   -9.1127   -2.4846  -22.4455 C   0  0  0  0  0  0  0  0  0  0  0  0
  -10.1594   -3.5085  -21.9294 C   0  0  0  0  0  0  0  0  0  0  0  0
  -10.3965   -3.4442  -20.8818 H   0  0  0  0  0  0  0  0  0  0  0  0
   -9.8934   -4.5472  -22.1411 H   0  0  0  0  0  0  0  0  0  0  0  0
   -8.6887   -1.3773  -21.4882 C   0  0  0  0  0  0  0  0  0  0  0  0
   -9.3496   -0.4564  -21.0703 O   0  0  0  0  0  0  0  0  0  0  0  0
   -7.3298   -1.5811  -21.2292 N   0  0  0  0  0  0  0  0  0  0  0  0
   -6.5893   -0.9043  -20.2180 C   0  0  0  0  0  0  0  0  0  0  0  0
   -6.9375   -1.0846  -18.8992 C   0  0  0  0  0  0  0  0  0  0  0  0
   -6.2536   -0.5583  -17.8560 N   0  0  0  0  0  0  0  0  0  0  0  0
   -5.2125    0.1845  -18.1270 C   0  0  0  0  0  0  0  0  0  0  0  0
   -4.7728    0.4869  -19.4438 C   0  0  0  0  0  0  0  0  0  0  0  0
   -3.6512    1.3282  -19.6542 C   0  0  0  0  0  0  0  0  0  0  0  0
   -3.2521    1.6457  -20.9220 C   0  0  0  0  0  0  0  0  0  0  0  0
   -3.9648    1.1343  -22.0299 C   0  0  0  0  0  0  0  0  0  0  0  0
   -5.0537    0.3131  -21.8541 C   0  0  0  0  0  0  0  0  0  0  0  0
   -5.4786   -0.0530  -20.5394 C   0  0  0  0  0  0  0  0  0  0  0  0
   -5.5880   -0.0541  -22.7267 H   0  0  0  0  0  0  0  0  0  0  0  0
   -3.6471    1.3959  -23.0358 H   0  0  0  0  0  0  0  0  0  0  0  0
   -2.3937    2.2934  -21.0837 H   0  0  0  0  0  0  0  0  0  0  0  0
   -3.1364    1.7135  -18.7809 H   0  0  0  0  0  0  0  0  0  0  0  0
   -4.6508    0.5998  -17.2902 H   0  0  0  0  0  0  0  0  0  0  0  0
   -7.8009   -1.6935  -18.6354 H   0  0  0  0  0  0  0  0  0  0  0  0
   -6.7865   -2.5614  -22.0811 C   0  0  0  0  0  0  0  0  0  0  0  0
   -5.6304   -2.9182  -22.1375 O   0  0  0  0  0  0  0  0  0  0  0  0
   -7.8326   -3.0256  -22.8300 N   0  0  0  0  0  0  0  0  0  0  0  0
   -7.6948   -4.1493  -23.7269 C   0  0  0  0  0  0  0  0  0  0  0  0
   -7.2620   -5.0069  -23.2043 H   0  0  0  0  0  0  0  0  0  0  0  0
   -8.6842   -4.4178  -24.1021 H   0  0  0  0  0  0  0  0  0  0  0  0
   -7.0479   -3.8847  -24.5644 H   0  0  0  0  0  0  0  0  0  0  0  0
  -10.4805   -1.0418  -23.4047 H   0  0  0  0  0  0  0  0  0  0  0  0
   -9.9224   -2.2870  -24.5504 H   0  0  0  0  0  0  0  0  0  0  0  0
  -13.3822   -3.9127  -25.5638 H   0  0  0  0  0  0  0  0  0  0  0  0
  -12.1460   -2.6516  -25.6057 H   0  0  0  0  0  0  0  0  0  0  0  0
  -13.4683   -1.4001  -23.7635 H   0  0  0  0  0  0  0  0  0  0  0  0
  -14.6303   -2.7356  -23.7637 H   0  0  0  0  0  0  0  0  0  0  0  0
  -14.5090   -1.6707  -25.1865 H   0  0  0  0  0  0  0  0  0  0  0  0
  1  2  1  0
  2  3  1  0
  3  4  2  0
  3  5  2  0
  3  6  1  0
  6  7  1  0
  7  8  1  0
  8  9  1  0
  9 10  1  0
  9 11  1  0
  8 12  1  0
 12 13  2  0
 12 14  1  0
 14 15  1  0
 15 16  2  0
 16 17  1  0
 17 18  2  0
 18 19  1  0
 19 20  2  0
 20 21  1  0
 21 22  2  0
 22 23  1  0
 23 24  2  0
 23 25  1  0
 22 26  1  0
 21 27  1  0
 20 28  1  0
 18 29  1  0
 16 30  1  0
 14 31  1  0
 31 32  2  0
 31 33  1  0
 33 34  1  0
 34 35  1  0
 34 36  1  0
 34 37  1  0
  7 38  1  0
  7 39  1  0
  2 40  1  0
  2 41  1  0
  1 42  1  0
  1 43  1  0
  1 44  1  0
  9  6  1  0
 24 15  1  0
 33  8  1  0
 24 19  1  0
M  END
>  <cnnaffinities>  (8) 
[5.93345, 5.79215, 4.93554, 4.93593, 4.95906, 4.95579]

>  <score>  (8) 
5.93345

>  <index>  (8) 
7

>  <Smiles>  (8) 
C(C(S(=O)(=O)N1C(C2(C1([H])[H])C(=O)N(c1c(nc(c3c(c(c(c(c13)[H])[H])[H])[H])[H])[H])C(=O)N2C([H])([H])[H])([H])[H])([H])[H])([H])([H])[H]

>  <h>  (8) 
<NA>

>  <Training>  (8) 
True

>  <Success>  (8) 
True

>  <enamine_searched>  (8) 
False

>  <enamine_id>  (8) 
nan

$$$$

     RDKit          3D

 60 64  0  0  0  0  0  0  0  0999 V2000
  -14.9034   -2.1119  -23.9526 C   0  0  0  0  0  0  0  0  0  0  0  0
  -13.9675   -3.0396  -23.3726 N   0  0  0  0  0  0  0  0  0  0  0  0
  -13.1996   -2.6994  -22.3031 C   0  0  0  0  0  0  0  0  0  0  0  0
  -13.1414   -1.5677  -21.8425 O   0  0  0  0  0  0  0  0  0  0  0  0
  -12.3983   -3.8701  -21.7566 C   0  0  0  0  0  0  0  0  0  0  0  0
  -11.0534   -3.8976  -22.3019 N   0  0  0  0  0  0  0  0  0  0  0  0
   -9.9309   -3.3578  -21.5387 C   0  0  0  0  0  0  0  0  0  0  0  0
   -8.7446   -2.8870  -22.4135 C   0  0  2  0  0  0  0  0  0  0  0  0
   -7.5418   -2.6739  -21.4795 C   0  0  0  0  0  0  0  0  0  0  0  0
   -6.8111   -3.5239  -21.0068 O   0  0  0  0  0  0  0  0  0  0  0  0
   -7.3952   -1.3237  -21.2461 N   0  0  0  0  0  0  0  0  0  0  0  0
   -6.5778   -0.8421  -20.1989 C   0  0  0  0  0  0  0  0  0  0  0  0
   -6.8847   -1.1107  -18.8898 C   0  0  0  0  0  0  0  0  0  0  0  0
   -6.2116   -0.5800  -17.8401 N   0  0  0  0  0  0  0  0  0  0  0  0
   -5.2007    0.2103  -18.0979 C   0  0  0  0  0  0  0  0  0  0  0  0
   -4.7519    0.5328  -19.4111 C   0  0  0  0  0  0  0  0  0  0  0  0
   -3.6260    1.3611  -19.6499 C   0  0  0  0  0  0  0  0  0  0  0  0
   -3.2233    1.6223  -20.9309 C   0  0  0  0  0  0  0  0  0  0  0  0
   -3.9199    1.0680  -22.0292 C   0  0  0  0  0  0  0  0  0  0  0  0
   -5.0141    0.2642  -21.8252 C   0  0  0  0  0  0  0  0  0  0  0  0
   -5.4563   -0.0123  -20.5041 C   0  0  0  0  0  0  0  0  0  0  0  0
   -5.5413   -0.1813  -22.6644 H   0  0  0  0  0  0  0  0  0  0  0  0
   -3.5869    1.2732  -23.0419 H   0  0  0  0  0  0  0  0  0  0  0  0
   -2.3621    2.2581  -21.1133 H   0  0  0  0  0  0  0  0  0  0  0  0
   -3.0985    1.7710  -18.7940 H   0  0  0  0  0  0  0  0  0  0  0  0
   -4.6706    0.6322  -17.2441 H   0  0  0  0  0  0  0  0  0  0  0  0
   -7.7179   -1.7659  -18.6390 H   0  0  0  0  0  0  0  0  0  0  0  0
   -8.3952   -0.4957  -21.8967 C   0  0  0  0  0  0  0  0  0  0  0  0
   -8.9610   -1.4375  -22.9720 C   0  0  2  0  0  0  0  0  0  0  0  0
  -10.3999   -1.1177  -23.3366 C   0  0  0  0  0  0  0  0  0  0  0  0
  -10.5064    0.1455  -23.9499 O   0  0  0  0  0  0  0  0  0  0  0  0
  -11.8616    0.3588  -24.2777 C   0  0  0  0  0  0  0  0  0  0  0  0
  -12.4974    0.3315  -23.3793 H   0  0  0  0  0  0  0  0  0  0  0  0
  -12.2103   -0.4333  -24.9595 H   0  0  0  0  0  0  0  0  0  0  0  0
  -11.9552    1.3245  -24.7782 H   0  0  0  0  0  0  0  0  0  0  0  0
  -10.7713   -1.8936  -24.0236 H   0  0  0  0  0  0  0  0  0  0  0  0
  -11.0391   -1.1277  -22.4401 H   0  0  0  0  0  0  0  0  0  0  0  0
   -8.3452   -1.3479  -23.8751 H   0  0  0  0  0  0  0  0  0  0  0  0
   -9.1672   -0.1637  -21.1824 H   0  0  0  0  0  0  0  0  0  0  0  0
   -7.9491    0.4100  -22.3199 H   0  0  0  0  0  0  0  0  0  0  0  0
   -8.4766   -3.9339  -23.4721 C   0  0  0  0  0  0  0  0  0  0  0  0
   -7.2031   -4.0898  -24.0342 C   0  0  0  0  0  0  0  0  0  0  0  0
   -6.9945   -5.0484  -25.0113 C   0  0  0  0  0  0  0  0  0  0  0  0
   -5.4061   -5.2287  -25.7055 Cl  0  0  0  0  0  0  0  0  0  0  0  0
   -8.0197   -5.8975  -25.4289 C   0  0  0  0  0  0  0  0  0  0  0  0
   -9.2855   -5.7232  -24.9059 C   0  0  0  0  0  0  0  0  0  0  0  0
   -9.5144   -4.7398  -23.9518 C   0  0  0  0  0  0  0  0  0  0  0  0
  -10.9084   -4.5660  -23.4748 C   0  0  0  0  0  0  0  0  0  0  0  0
  -11.8806   -5.0096  -24.0919 O   0  0  0  0  0  0  0  0  0  0  0  0
  -10.1261   -6.3360  -25.2188 H   0  0  0  0  0  0  0  0  0  0  0  0
   -7.8228   -6.6815  -26.1484 H   0  0  0  0  0  0  0  0  0  0  0  0
   -6.3660   -3.4991  -23.6786 H   0  0  0  0  0  0  0  0  0  0  0  0
   -9.5623   -4.1090  -20.8432 H   0  0  0  0  0  0  0  0  0  0  0  0
  -10.2537   -2.4997  -20.9383 H   0  0  0  0  0  0  0  0  0  0  0  0
  -12.9347   -4.7553  -22.0886 H   0  0  0  0  0  0  0  0  0  0  0  0
  -12.3523   -3.8439  -20.6722 H   0  0  0  0  0  0  0  0  0  0  0  0
  -13.6687   -3.8200  -23.9401 H   0  0  0  0  0  0  0  0  0  0  0  0
  -15.4370   -1.5997  -23.1510 H   0  0  0  0  0  0  0  0  0  0  0  0
  -15.6102   -2.6613  -24.5790 H   0  0  0  0  0  0  0  0  0  0  0  0
  -14.4166   -1.3430  -24.5595 H   0  0  0  0  0  0  0  0  0  0  0  0
  1  2  1  0
  2  3  1  0
  3  4  2  0
  3  5  1  0
  5  6  1  0
  6  7  1  0
  8  7  1  1
  8  9  1  0
  9 10  2  0
  9 11  1  0
 11 12  1  0
 12 13  2  0
 13 14  1  0
 14 15  2  0
 15 16  1  0
 16 17  2  0
 17 18  1  0
 18 19  2  0
 19 20  1  0
 20 21  2  0
 20 22  1  0
 19 23  1  0
 18 24  1  0
 17 25  1  0
 15 26  1  0
 13 27  1  0
 11 28  1  0
 28 29  1  0
 29 30  1  0
 30 31  1  0
 31 32  1  0
 32 33  1  0
 32 34  1  0
 32 35  1  0
 30 36  1  0
 30 37  1  0
 29 38  1  6
 28 39  1  0
 28 40  1  0
  8 41  1  0
 41 42  2  0
 42 43  1  0
 43 44  1  0
 43 45  2  0
 45 46  1  0
 46 47  2  0
 47 48  1  0
 48 49  2  0
 46 50  1  0
 45 51  1  0
 42 52  1  0
  7 53  1  0
  7 54  1  0
  5 55  1  0
  5 56  1  0
  2 57  1  0
  1 58  1  0
  1 59  1  0
  1 60  1  0
 48  6  1  0
 29  8  1  0
 47 41  1  0
 21 12  1  0
 21 16  1  0
M  END
>  <cnnaffinities>  (9) 
[6.61927]

>  <score>  (9) 
6.61927

>  <index>  (9) 
8

>  <Smiles>  (9) 
C(N(C(=O)C(N1C([C@@]2(C(=O)N(c3c(nc(c4c(c(c(c(c34)[H])[H])[H])[H])[H])[H])C([C@@]2(C(OC([H])([H])[H])([H])[H])[H])([H])[H])c2c(c(Cl)c(c(c2C1=O)[H])[H])[H])([H])[H])([H])[H])[H])([H])([H])[H]

>  <h>  (9) 
<NA>

>  <Training>  (9) 
True

>  <Success>  (9) 
True

>  <enamine_searched>  (9) 
False

>  <enamine_id>  (9) 
nan

$$$$

     RDKit          3D

 41 43  0  0  0  0  0  0  0  0999 V2000
  -13.1789   -2.9269  -22.9032 C   0  0  0  0  0  0  0  0  0  0  0  0
  -11.9701   -2.0481  -23.2191 C   0  0  1  0  0  0  0  0  0  0  0  0
  -12.1571   -0.6587  -22.6470 C   0  0  0  0  0  0  0  0  0  0  0  0
  -11.3192    0.3570  -22.8372 C   0  0  0  0  0  0  0  0  0  0  0  0
  -10.0221    0.2183  -23.6043 C   0  0  0  0  0  0  0  0  0  0  0  0
   -9.0918   -0.7822  -23.0590 N   0  0  0  0  0  0  0  0  0  0  0  0
   -8.3788   -0.4053  -21.9311 C   0  0  0  0  0  0  0  0  0  0  0  0
   -8.4783    0.7176  -21.4716 O   0  0  0  0  0  0  0  0  0  0  0  0
   -7.4317   -1.4336  -21.2730 C   0  0  0  0  0  0  0  0  0  0  0  0
   -6.5790   -0.8284  -20.1821 C   0  0  0  0  0  0  0  0  0  0  0  0
   -6.8774   -1.0389  -18.8620 C   0  0  0  0  0  0  0  0  0  0  0  0
   -6.1884   -0.5330  -17.8050 N   0  0  0  0  0  0  0  0  0  0  0  0
   -5.1540    0.2228  -18.0676 C   0  0  0  0  0  0  0  0  0  0  0  0
   -4.7218    0.5369  -19.3829 C   0  0  0  0  0  0  0  0  0  0  0  0
   -3.5967    1.3673  -19.6226 C   0  0  0  0  0  0  0  0  0  0  0  0
   -3.2091    1.6591  -20.9019 C   0  0  0  0  0  0  0  0  0  0  0  0
   -3.9333    1.1304  -21.9932 C   0  0  0  0  0  0  0  0  0  0  0  0
   -5.0255    0.3232  -21.7868 C   0  0  0  0  0  0  0  0  0  0  0  0
   -5.4532    0.0017  -20.4728 C   0  0  0  0  0  0  0  0  0  0  0  0
   -5.5740   -0.0672  -22.6379 H   0  0  0  0  0  0  0  0  0  0  0  0
   -3.6239    1.3694  -23.0062 H   0  0  0  0  0  0  0  0  0  0  0  0
   -2.3531    2.3036  -21.0878 H   0  0  0  0  0  0  0  0  0  0  0  0
   -3.0557    1.7749  -18.7715 H   0  0  0  0  0  0  0  0  0  0  0  0
   -4.6005    0.6272  -17.2166 H   0  0  0  0  0  0  0  0  0  0  0  0
   -7.7284   -1.6593  -18.5830 H   0  0  0  0  0  0  0  0  0  0  0  0
   -6.7957   -1.8989  -22.0377 H   0  0  0  0  0  0  0  0  0  0  0  0
   -8.0411   -2.2444  -20.8450 H   0  0  0  0  0  0  0  0  0  0  0  0
   -9.3948   -2.1693  -23.3980 C   0  0  0  0  0  0  0  0  0  0  0  0
  -10.6666   -2.7289  -22.7528 C   0  0  0  0  0  0  0  0  0  0  0  0
  -10.5870   -2.6363  -21.6641 H   0  0  0  0  0  0  0  0  0  0  0  0
  -10.7248   -3.8065  -22.9658 H   0  0  0  0  0  0  0  0  0  0  0  0
   -8.5306   -2.7931  -23.1569 H   0  0  0  0  0  0  0  0  0  0  0  0
   -9.5111   -2.2202  -24.4863 H   0  0  0  0  0  0  0  0  0  0  0  0
  -10.2465   -0.0766  -24.6365 H   0  0  0  0  0  0  0  0  0  0  0  0
   -9.5083    1.1795  -23.6538 H   0  0  0  0  0  0  0  0  0  0  0  0
  -11.5319    1.3280  -22.3883 H   0  0  0  0  0  0  0  0  0  0  0  0
  -13.0290   -0.4949  -22.0121 H   0  0  0  0  0  0  0  0  0  0  0  0
  -11.9080   -1.9520  -24.3137 H   0  0  0  0  0  0  0  0  0  0  0  0
  -13.0971   -3.9087  -23.3851 H   0  0  0  0  0  0  0  0  0  0  0  0
  -13.2635   -3.0899  -21.8217 H   0  0  0  0  0  0  0  0  0  0  0  0
  -14.1063   -2.4564  -23.2508 H   0  0  0  0  0  0  0  0  0  0  0  0
  1  2  1  0
  2  3  1  0
  3  4  2  0
  4  5  1  0
  5  6  1  0
  6  7  1  0
  7  8  2  0
  7  9  1  0
  9 10  1  0
 10 11  2  0
 11 12  1  0
 12 13  2  0
 13 14  1  0
 14 15  2  0
 15 16  1  0
 16 17  2  0
 17 18  1  0
 18 19  2  0
 18 20  1  0
 17 21  1  0
 16 22  1  0
 15 23  1  0
 13 24  1  0
 11 25  1  0
  9 26  1  0
  9 27  1  0
  6 28  1  0
 28 29  1  0
 29 30  1  0
 29 31  1  0
 28 32  1  0
 28 33  1  0
  5 34  1  0
  5 35  1  0
  4 36  1  0
  3 37  1  0
  2 38  1  6
  1 39  1  0
  1 40  1  0
  1 41  1  0
 29  2  1  0
 19 10  1  0
 19 14  1  0
M  END
>  <cnnaffinities>  (10) 
[4.99373, 5.46658]

>  <score>  (10) 
4.99373

>  <index>  (10) 
9

>  <Smiles>  (10) 
C([C@]1(C(=C(C(N(C(=O)C(c2c(nc(c3c(c(c(c(c23)[H])[H])[H])[H])[H])[H])([H])[H])C(C1([H])[H])([H])[H])([H])[H])[H])[H])[H])([H])([H])[H]

>  <h>  (10) 
<NA>

>  <Training>  (10) 
True

>  <Success>  (10) 
True

>  <enamine_searched>  (10) 
False

>  <enamine_id>  (10) 
nan

$$$$

     RDKit          3D

 57 62  0  0  0  0  0  0  0  0999 V2000
  -10.4442   -1.1605  -23.2801 C   0  0  0  0  0  0  0  0  0  0  0  0
   -9.0012   -1.4946  -22.9377 C   0  0  1  0  0  0  0  0  0  0  0  0
   -8.3846   -0.5379  -21.9090 C   0  0  0  0  0  0  0  0  0  0  0  0
   -7.3941   -1.3575  -21.2345 N   0  0  0  0  0  0  0  0  0  0  0  0
   -6.5786   -0.8511  -20.1934 C   0  0  0  0  0  0  0  0  0  0  0  0
   -6.8865   -1.0904  -18.8784 C   0  0  0  0  0  0  0  0  0  0  0  0
   -6.2091   -0.5612  -17.8288 N   0  0  0  0  0  0  0  0  0  0  0  0
   -5.1868    0.2146  -18.0886 C   0  0  0  0  0  0  0  0  0  0  0  0
   -4.7445    0.5238  -19.4066 C   0  0  0  0  0  0  0  0  0  0  0  0
   -3.6172    1.3499  -19.6436 C   0  0  0  0  0  0  0  0  0  0  0  0
   -3.2152    1.6153  -20.9245 C   0  0  0  0  0  0  0  0  0  0  0  0
   -3.9156    1.0676  -22.0204 C   0  0  0  0  0  0  0  0  0  0  0  0
   -5.0116    0.2654  -21.8181 C   0  0  0  0  0  0  0  0  0  0  0  0
   -5.4568   -0.0183  -20.4989 C   0  0  0  0  0  0  0  0  0  0  0  0
   -5.5331   -0.1674  -22.6654 H   0  0  0  0  0  0  0  0  0  0  0  0
   -3.5872    1.2841  -23.0324 H   0  0  0  0  0  0  0  0  0  0  0  0
   -2.3607    2.2587  -21.1058 H   0  0  0  0  0  0  0  0  0  0  0  0
   -3.0909    1.7645  -18.7897 H   0  0  0  0  0  0  0  0  0  0  0  0
   -4.6450    0.6377  -17.2403 H   0  0  0  0  0  0  0  0  0  0  0  0
   -7.7289   -1.7307  -18.6264 H   0  0  0  0  0  0  0  0  0  0  0  0
   -7.5650   -2.7113  -21.4390 C   0  0  0  0  0  0  0  0  0  0  0  0
   -6.8268   -3.5699  -21.0001 O   0  0  0  0  0  0  0  0  0  0  0  0
   -8.7853   -2.9282  -22.3420 C   0  0  1  0  0  0  0  0  0  0  0  0
   -9.9778   -3.3981  -21.4777 C   0  0  0  0  0  0  0  0  0  0  0  0
  -11.1001   -3.8931  -22.2641 N   0  0  0  0  0  0  0  0  0  0  0  0
  -12.4504   -3.9136  -21.6891 C   0  0  0  0  0  0  0  0  0  0  0  0
  -13.3529   -2.7751  -22.0816 C   0  0  0  0  0  0  0  0  0  0  0  0
  -13.9527   -1.7368  -21.4424 C   0  0  0  0  0  0  0  0  0  0  0  0
  -14.6536   -1.0267  -22.3984 N   0  0  0  0  0  4  0  0  0  0  0  0
  -14.5338   -1.6484  -23.5754 C   0  0  0  0  0  0  0  0  0  0  0  0
  -13.7548   -2.7190  -23.4081 N   0  0  0  0  0  0  0  0  0  0  0  0
  -13.4668   -3.4129  -24.0968 H   0  0  0  0  0  0  0  0  0  0  0  0
  -15.0028   -1.3470  -24.4915 H   0  0  0  0  0  0  0  0  0  0  0  0
  -15.1507   -0.1641  -22.2274 H   0  0  0  0  0  0  0  0  0  0  0  0
  -13.9856   -1.4215  -20.4076 H   0  0  0  0  0  0  0  0  0  0  0  0
  -12.9115   -4.7669  -22.1823 H   0  0  0  0  0  0  0  0  0  0  0  0
  -12.4176   -4.1080  -20.6098 H   0  0  0  0  0  0  0  0  0  0  0  0
  -10.9311   -4.5868  -23.4293 C   0  0  0  0  0  0  0  0  0  0  0  0
  -11.8925   -4.9950  -24.0796 O   0  0  0  0  0  0  0  0  0  0  0  0
   -9.5257   -4.7896  -23.8853 C   0  0  0  0  0  0  0  0  0  0  0  0
   -9.2600   -5.7560  -24.8571 C   0  0  0  0  0  0  0  0  0  0  0  0
   -8.0005   -5.8885  -25.4084 C   0  0  0  0  0  0  0  0  0  0  0  0
   -7.0122   -5.0280  -24.9485 C   0  0  0  0  0  0  0  0  0  0  0  0
   -5.7991   -5.0934  -25.5176 F   0  0  0  0  0  0  0  0  0  0  0  0
   -7.2297   -4.0960  -23.9523 C   0  0  0  0  0  0  0  0  0  0  0  0
   -8.5043   -3.9745  -23.3934 C   0  0  0  0  0  0  0  0  0  0  0  0
   -6.4077   -3.4716  -23.6192 H   0  0  0  0  0  0  0  0  0  0  0  0
   -7.7745   -6.6122  -26.1896 H   0  0  0  0  0  0  0  0  0  0  0  0
  -10.0595   -6.4085  -25.1788 H   0  0  0  0  0  0  0  0  0  0  0  0
   -9.6578   -4.1911  -20.8002 H   0  0  0  0  0  0  0  0  0  0  0  0
  -10.3208   -2.5539  -20.8743 H   0  0  0  0  0  0  0  0  0  0  0  0
   -7.9219    0.3355  -22.3823 H   0  0  0  0  0  0  0  0  0  0  0  0
   -9.1410   -0.1656  -21.2004 H   0  0  0  0  0  0  0  0  0  0  0  0
   -8.3928   -1.4512  -23.8518 H   0  0  0  0  0  0  0  0  0  0  0  0
  -11.0534   -1.1501  -22.3702 H   0  0  0  0  0  0  0  0  0  0  0  0
  -10.8505   -1.9267  -23.9443 H   0  0  0  0  0  0  0  0  0  0  0  0
  -10.5242   -0.1857  -23.7665 H   0  0  0  0  0  0  0  0  0  0  0  0
  1  2  1  0
  2  3  1  0
  3  4  1  0
  4  5  1  0
  5  6  2  0
  6  7  1  0
  7  8  2  0
  8  9  1  0
  9 10  2  0
 10 11  1  0
 11 12  2  0
 12 13  1  0
 13 14  2  0
 13 15  1  0
 12 16  1  0
 11 17  1  0
 10 18  1  0
  8 19  1  0
  6 20  1  0
  4 21  1  0
 21 22  2  0
 21 23  1  0
 23 24  1  1
 24 25  1  0
 25 26  1  0
 26 27  1  0
 27 28  2  0
 28 29  1  0
 29 30  2  0
 30 31  1  0
 31 32  1  0
 30 33  1  0
 29 34  1  0
 28 35  1  0
 26 36  1  0
 26 37  1  0
 25 38  1  0
 38 39  2  0
 38 40  1  0
 40 41  2  0
 41 42  1  0
 42 43  2  0
 43 44  1  0
 43 45  1  0
 45 46  2  0
 45 47  1  0
 42 48  1  0
 41 49  1  0
 24 50  1  0
 24 51  1  0
  3 52  1  0
  3 53  1  0
  2 54  1  6
  1 55  1  0
  1 56  1  0
  1 57  1  0
 23  2  1  0
 31 27  1  0
 46 40  1  0
 14  5  1  0
 46 23  1  0
 14  9  1  0
M  CHG  1  29   1
M  END
>  <cnnaffinities>  (11) 
[6.89665, 6.86962]

>  <score>  (11) 
6.89665

>  <index>  (11) 
10

>  <Smiles>  (11) 
C([C@]1(C(N(c2c(nc(c3c(c(c(c(c23)[H])[H])[H])[H])[H])[H])C(=O)[C@]21C(N(C(c1c([n+](c(n1[H])[H])[H])[H])([H])[H])C(=O)c1c(c(c(F)c(c21)[H])[H])[H])([H])[H])([H])[H])[H])([H])([H])[H]

>  <h>  (11) 
<NA>

>  <Training>  (11) 
True

>  <Success>  (11) 
True

>  <enamine_searched>  (11) 
False

>  <enamine_id>  (11) 
nan

$$$$

     RDKit          3D

 48 52  0  0  0  0  0  0  0  0999 V2000
  -10.1090   -0.8776  -23.6408 C   0  0  0  0  0  0  0  0  0  0  0  0
   -9.1122   -1.3723  -22.7030 N   0  0  0  0  0  0  0  0  0  0  0  0
   -8.3064   -0.5188  -22.0035 C   0  0  0  0  0  0  0  0  0  0  0  0
   -8.3206    0.6928  -22.0218 O   0  0  0  0  0  0  0  0  0  0  0  0
   -7.4415   -1.3133  -21.2384 N   0  0  0  0  0  0  0  0  0  0  0  0
   -6.6159   -0.7967  -20.2122 C   0  0  0  0  0  0  0  0  0  0  0  0
   -6.9319   -1.0477  -18.9022 C   0  0  0  0  0  0  0  0  0  0  0  0
   -6.2385   -0.5495  -17.8541 N   0  0  0  0  0  0  0  0  0  0  0  0
   -5.2067    0.2098  -18.1196 C   0  0  0  0  0  0  0  0  0  0  0  0
   -4.7712    0.5377  -19.4332 C   0  0  0  0  0  0  0  0  0  0  0  0
   -3.6329    1.3542  -19.6528 C   0  0  0  0  0  0  0  0  0  0  0  0
   -3.2099    1.6112  -20.9270 C   0  0  0  0  0  0  0  0  0  0  0  0
   -3.9043    1.0643  -22.0321 C   0  0  0  0  0  0  0  0  0  0  0  0
   -5.0180    0.2829  -21.8472 C   0  0  0  0  0  0  0  0  0  0  0  0
   -5.4840    0.0099  -20.5291 C   0  0  0  0  0  0  0  0  0  0  0  0
   -5.5486   -0.1297  -22.7027 H   0  0  0  0  0  0  0  0  0  0  0  0
   -3.5474    1.2544  -23.0401 H   0  0  0  0  0  0  0  0  0  0  0  0
   -2.3290    2.2249  -21.0977 H   0  0  0  0  0  0  0  0  0  0  0  0
   -3.1099    1.7453  -18.7843 H   0  0  0  0  0  0  0  0  0  0  0  0
   -4.6484    0.6033  -17.2709 H   0  0  0  0  0  0  0  0  0  0  0  0
   -7.7861   -1.6756  -18.6576 H   0  0  0  0  0  0  0  0  0  0  0  0
   -7.6606   -2.6637  -21.4493 C   0  0  0  0  0  0  0  0  0  0  0  0
   -6.9573   -3.5634  -21.0518 O   0  0  0  0  0  0  0  0  0  0  0  0
   -8.8787   -2.7517  -22.3454 C   0  0  0  0  0  0  0  0  0  0  0  0
   -8.7375   -3.8135  -23.4455 C   0  0  0  0  0  0  0  0  0  0  0  0
  -10.0031   -4.4528  -23.0056 N   0  0  0  0  0  0  0  0  0  0  0  0
  -11.2887   -4.4264  -24.0980 S   0  0  0  0  0  0  0  0  0  0  0  0
  -12.5204   -4.7325  -23.3970 O   0  0  0  0  0  0  0  0  0  0  0  0
  -11.2211   -3.2165  -24.9080 O   0  0  0  0  0  0  0  0  0  0  0  0
  -10.8103   -5.7734  -25.1468 C   0  0  0  0  0  0  0  0  0  0  0  0
  -11.4410   -5.8079  -26.3829 C   0  0  0  0  0  0  0  0  0  0  0  0
  -11.0222   -6.7150  -27.3496 C   0  0  0  0  0  0  0  0  0  0  0  0
   -9.9805   -7.5911  -27.0461 C   0  0  0  0  0  0  0  0  0  0  0  0
   -9.4005   -7.6012  -25.7814 C   0  0  0  0  0  0  0  0  0  0  0  0
   -9.8230   -6.6961  -24.8164 C   0  0  0  0  0  0  0  0  0  0  0  0
   -9.3938   -6.6926  -23.8194 H   0  0  0  0  0  0  0  0  0  0  0  0
   -8.5942   -8.3006  -25.5650 H   0  0  0  0  0  0  0  0  0  0  0  0
   -9.5923   -8.2814  -27.7874 H   0  0  0  0  0  0  0  0  0  0  0  0
  -11.4675   -6.7062  -28.3439 H   0  0  0  0  0  0  0  0  0  0  0  0
  -12.2325   -5.0943  -26.5655 H   0  0  0  0  0  0  0  0  0  0  0  0
  -10.0958   -3.5524  -21.8251 C   0  0  0  0  0  0  0  0  0  0  0  0
   -9.8898   -4.1018  -20.9073 H   0  0  0  0  0  0  0  0  0  0  0  0
  -11.0236   -2.9841  -21.7365 H   0  0  0  0  0  0  0  0  0  0  0  0
   -8.6895   -3.4523  -24.4753 H   0  0  0  0  0  0  0  0  0  0  0  0
   -7.8961   -4.4725  -23.2155 H   0  0  0  0  0  0  0  0  0  0  0  0
  -11.1313   -1.0338  -23.2817 H   0  0  0  0  0  0  0  0  0  0  0  0
  -10.0199   -1.3684  -24.6101 H   0  0  0  0  0  0  0  0  0  0  0  0
   -9.9493    0.1950  -23.7512 H   0  0  0  0  0  0  0  0  0  0  0  0
  1  2  1  0
  2  3  1  0
  3  4  2  0
  3  5  1  0
  5  6  1  0
  6  7  2  0
  7  8  1  0
  8  9  2  0
  9 10  1  0
 10 11  2  0
 11 12  1  0
 12 13  2  0
 13 14  1  0
 14 15  2  0
 14 16  1  0
 13 17  1  0
 12 18  1  0
 11 19  1  0
  9 20  1  0
  7 21  1  0
  5 22  1  0
 22 23  2  0
 22 24  1  0
 24 25  1  0
 25 26  1  0
 26 27  1  0
 27 28  2  0
 27 29  2  0
 27 30  1  0
 30 31  2  0
 31 32  1  0
 32 33  2  0
 33 34  1  0
 34 35  2  0
 35 36  1  0
 34 37  1  0
 33 38  1  0
 32 39  1  0
 31 40  1  0
 26 41  1  0
 41 42  1  0
 41 43  1  0
 25 44  1  0
 25 45  1  0
  1 46  1  0
  1 47  1  0
  1 48  1  0
 24  2  1  0
 35 30  1  0
 15  6  1  0
 41 24  1  0
 15 10  1  0
M  END
>  <cnnaffinities>  (12) 
[5.99154, 5.99348, 5.98509]

>  <score>  (12) 
5.99154

>  <index>  (12) 
11

>  <Smiles>  (12) 
C(N1C(=O)N(c2c(nc(c3c(c(c(c(c23)[H])[H])[H])[H])[H])[H])C(=O)C21C(N(S(=O)(=O)c1c(c(c(c(c1[H])[H])[H])[H])[H])C2([H])[H])([H])[H])([H])([H])[H]

>  <h>  (12) 
<NA>

>  <Training>  (12) 
True

>  <Success>  (12) 
True

>  <enamine_searched>  (12) 
False

>  <enamine_id>  (12) 
nan

$$$$

     RDKit          3D

 76 82  0  0  0  0  0  0  0  0999 V2000
  -11.3120    1.5754  -24.7417 O   0  0  0  0  0  0  0  0  0  0  0  0
  -10.7142    0.5797  -24.3393 C   0  0  0  0  0  0  0  0  0  0  0  0
  -11.3202   -0.3602  -23.3374 C   0  0  0  0  0  0  0  0  0  0  0  0
  -12.6729   -0.1955  -23.0396 C   0  0  0  0  0  0  0  0  0  0  0  0
  -13.3245   -1.0910  -22.2141 C   0  0  0  0  0  0  0  0  0  0  0  0
  -12.5886   -2.1425  -21.6737 C   0  0  0  0  0  0  0  0  0  0  0  0
  -13.4042   -3.3053  -20.6658 Cl  0  0  0  0  0  0  0  0  0  0  0  0
  -11.2281   -2.2715  -21.8919 C   0  0  0  0  0  0  0  0  0  0  0  0
  -10.5602   -1.3798  -22.7415 C   0  0  0  0  0  0  0  0  0  0  0  0
   -9.0572   -1.4714  -23.0221 C   0  0  1  0  0  0  0  0  0  0  0  0
   -8.8744   -1.0449  -24.5041 C   0  0  0  0  0  0  0  0  0  0  0  0
   -9.4805    0.2390  -24.8053 N   0  0  0  0  0  0  0  0  0  0  0  0
   -8.6761    1.2422  -25.4886 C   0  0  0  0  0  0  0  0  0  0  0  0
   -8.3995    0.8800  -26.9453 C   0  0  0  0  0  0  0  0  0  0  0  0
   -9.6852    0.6328  -27.6929 N   0  0  0  0  0  4  0  0  0  0  0  0
   -9.5186   -0.2356  -28.9141 C   0  0  0  0  0  0  0  0  0  0  0  0
   -8.9878    0.5500  -30.1101 C   0  0  0  0  0  0  0  0  0  0  0  0
   -9.7758    1.6916  -30.3928 O   0  0  0  0  0  0  0  0  0  0  0  0
   -9.7932    2.5794  -29.2917 C   0  0  0  0  0  0  0  0  0  0  0  0
  -10.4165    1.9078  -28.0784 C   0  0  0  0  0  0  0  0  0  0  0  0
  -10.4479    2.5724  -27.2127 H   0  0  0  0  0  0  0  0  0  0  0  0
  -11.4411    1.6379  -28.3404 H   0  0  0  0  0  0  0  0  0  0  0  0
   -8.7765    2.9365  -29.0669 H   0  0  0  0  0  0  0  0  0  0  0  0
  -10.4005    3.4382  -29.5893 H   0  0  0  0  0  0  0  0  0  0  0  0
   -9.0197   -0.0774  -31.0049 H   0  0  0  0  0  0  0  0  0  0  0  0
   -7.9419    0.8466  -29.9298 H   0  0  0  0  0  0  0  0  0  0  0  0
   -8.8467   -1.0628  -28.6692 H   0  0  0  0  0  0  0  0  0  0  0  0
  -10.4867   -0.6648  -29.1671 H   0  0  0  0  0  0  0  0  0  0  0  0
  -10.2844    0.1076  -27.0298 H   0  0  0  0  0  0  0  0  0  0  0  0
   -7.8301    1.6785  -27.4249 H   0  0  0  0  0  0  0  0  0  0  0  0
   -7.7952   -0.0324  -27.0038 H   0  0  0  0  0  0  0  0  0  0  0  0
   -7.7307    1.3700  -24.9464 H   0  0  0  0  0  0  0  0  0  0  0  0
   -9.2394    2.1730  -25.4283 H   0  0  0  0  0  0  0  0  0  0  0  0
   -9.3282   -1.8166  -25.1445 H   0  0  0  0  0  0  0  0  0  0  0  0
   -7.8119   -0.9696  -24.7469 H   0  0  0  0  0  0  0  0  0  0  0  0
   -8.2380   -0.5285  -22.1001 C   0  0  0  0  0  0  0  0  0  0  0  0
   -8.2682    0.6832  -22.0882 O   0  0  0  0  0  0  0  0  0  0  0  0
   -7.4367   -1.2990  -21.2783 N   0  0  0  0  0  0  0  0  0  0  0  0
   -6.6219   -0.7662  -20.2467 C   0  0  0  0  0  0  0  0  0  0  0  0
   -6.9089   -1.0442  -18.9320 C   0  0  0  0  0  0  0  0  0  0  0  0
   -6.2197   -0.5605  -17.8711 N   0  0  0  0  0  0  0  0  0  0  0  0
   -5.1913    0.2098  -18.1161 C   0  0  0  0  0  0  0  0  0  0  0  0
   -4.7444    0.5394  -19.4260 C   0  0  0  0  0  0  0  0  0  0  0  0
   -3.6067    1.3630  -19.6321 C   0  0  0  0  0  0  0  0  0  0  0  0
   -3.1655    1.6266  -20.8992 C   0  0  0  0  0  0  0  0  0  0  0  0
   -3.8343    1.0707  -22.0113 C   0  0  0  0  0  0  0  0  0  0  0  0
   -4.9437    0.2802  -21.8376 C   0  0  0  0  0  0  0  0  0  0  0  0
   -5.4510    0.0180  -20.5338 C   0  0  0  0  0  0  0  0  0  0  0  0
   -5.4422   -0.1488  -22.7010 H   0  0  0  0  0  0  0  0  0  0  0  0
   -3.4714    1.2712  -23.0145 H   0  0  0  0  0  0  0  0  0  0  0  0
   -2.3019    2.2652  -21.0577 H   0  0  0  0  0  0  0  0  0  0  0  0
   -3.1036    1.7738  -18.7617 H   0  0  0  0  0  0  0  0  0  0  0  0
   -4.6457    0.6015  -17.2584 H   0  0  0  0  0  0  0  0  0  0  0  0
   -7.7617   -1.6744  -18.6829 H   0  0  0  0  0  0  0  0  0  0  0  0
   -7.7662   -2.7081  -21.3375 C   0  0  0  0  0  0  0  0  0  0  0  0
   -8.4511   -2.8721  -22.7067 C   0  0  2  0  0  0  0  0  0  0  0  0
   -7.4987   -3.4419  -23.7779 C   0  0  0  0  0  0  0  0  0  0  0  0
   -7.1024   -4.8158  -23.5179 N   0  0  0  0  0  0  0  0  0  0  0  0
   -7.9185   -5.8520  -23.7464 C   0  0  0  0  0  0  0  0  0  0  0  0
  -10.0974   -6.4224  -24.8003 N   0  0  0  0  0  0  0  0  0  0  0  0
   -9.0881   -5.8644  -24.4670 C   0  0  0  0  0  0  0  0  0  0  0  0
   -8.4641   -8.0750  -23.3684 C   0  0  0  0  0  0  0  0  0  0  0  0
   -8.5503   -8.0131  -23.3593 C   0  0  0  0  0  0  0  0  0  0  0  0
   -7.5265   -7.0281  -23.2168 N   0  0  0  0  0  0  0  0  0  0  0  0
   -7.8117   -9.0881  -23.1929 H   0  0  0  0  0  0  0  0  0  0  0  0
   -9.3940   -8.3942  -24.1351 H   0  0  0  0  0  0  0  0  0  0  0  0
  -10.9245   -6.0907  -25.2890 H   0  0  0  0  0  0  0  0  0  0  0  0
   -6.3944   -5.0124  -22.8209 H   0  0  0  0  0  0  0  0  0  0  0  0
   -8.0122   -3.4628  -24.7433 H   0  0  0  0  0  0  0  0  0  0  0  0
   -6.6024   -2.8176  -23.8912 H   0  0  0  0  0  0  0  0  0  0  0  0
   -9.2480   -3.6162  -22.6556 H   0  0  0  0  0  0  0  0  0  0  0  0
   -8.4562   -2.9820  -20.5269 H   0  0  0  0  0  0  0  0  0  0  0  0
   -6.8517   -3.2982  -21.2174 H   0  0  0  0  0  0  0  0  0  0  0  0
  -10.7098   -3.0739  -21.3814 H   0  0  0  0  0  0  0  0  0  0  0  0
  -14.3797   -0.9848  -21.9852 H   0  0  0  0  0  0  0  0  0  0  0  0
  -13.1963    0.6456  -23.4825 H   0  0  0  0  0  0  0  0  0  0  0  0
  1  2  2  0
  2  3  1  0
  3  4  2  0
  4  5  1  0
  5  6  2  0
  6  7  1  0
  6  8  1  0
  8  9  2  0
  9 10  1  0
 10 11  1  6
 11 12  1  0
 12 13  1  0
 13 14  1  0
 14 15  1  0
 15 16  1  0
 16 17  1  0
 17 18  1  0
 18 19  1  0
 19 20  1  0
 20 21  1  0
 20 22  1  0
 19 23  1  0
 19 24  1  0
 17 25  1  0
 17 26  1  0
 16 27  1  0
 16 28  1  0
 15 29  1  0
 14 30  1  0
 14 31  1  0
 13 32  1  0
 13 33  1  0
 11 34  1  0
 11 35  1  0
 10 36  1  0
 36 37  2  0
 36 38  1  0
 38 39  1  0
 39 40  2  0
 40 41  1  0
 41 42  2  0
 42 43  1  0
 43 44  2  0
 44 45  1  0
 45 46  2  0
 46 47  1  0
 47 48  2  0
 47 49  1  0
 46 50  1  0
 45 51  1  0
 44 52  1  0
 42 53  1  0
 40 54  1  0
 38 55  1  0
 55 56  1  0
 56 57  1  0
 57 58  1  0
 58 59  1  0
 59 60  2  0
 60 61  1  0
 61 62  2  0
 62 63  1  0
 63 64  2  0
 63 65  1  0
 62 66  1  0
 61 67  1  0
 58 68  1  0
 57 69  1  0
 57 70  1  0
 56 71  1  1
 55 72  1  0
 55 73  1  0
  8 74  1  0
  5 75  1  0
  4 76  1  0
 12  2  1  0
 20 15  1  0
 48 39  1  0
 64 59  1  0
  9  3  1  0
 56 10  1  0
 48 43  1  0
M  CHG  1  15   1
M  END
>  <cnnaffinities>  (13) 
[6.23976]

>  <score>  (13) 
6.23976

>  <index>  (13) 
12

>  <Smiles>  (13) 
O=C1c2c(c(c(Cl)c(c2[C@@]2(C(N1C(C([N+]1(C(C(OC(C1([H])[H])([H])[H])([H])[H])([H])[H])[H])([H])[H])([H])[H])([H])[H])C(=O)N(c1c(nc(c3c(c(c(c(c13)[H])[H])[H])[H])[H])[H])C([C@@]2(C(N(c1nc(c(c(n1)[H])[H])[H])[H])([H])[H])[H])([H])[H])[H])[H])[H]

>  <h>  (13) 
<NA>

>  <Training>  (13) 
True

>  <Success>  (13) 
True

>  <enamine_searched>  (13) 
False

>  <enamine_id>  (13) 
nan

$$$$

     RDKit          3D

 69 74  0  0  0  0  0  0  0  0999 V2000
   -7.3701    3.2728  -21.7921 C   0  0  0  0  0  0  0  0  0  0  0  0
   -8.2911    2.8449  -22.8356 N   0  0  0  0  0  0  0  0  0  0  0  0
   -7.7489    2.1725  -23.8905 C   0  0  0  0  0  0  0  0  0  0  0  0
   -6.5405    2.0464  -24.0396 O   0  0  0  0  0  0  0  0  0  0  0  0
   -8.7311    1.5719  -24.8941 C   0  0  0  0  0  0  0  0  0  0  0  0
   -9.4075    0.4202  -24.3345 N   0  0  0  0  0  0  0  0  0  0  0  0
   -8.6665   -0.8218  -24.1777 C   0  0  0  0  0  0  0  0  0  0  0  0
   -9.0583   -1.5509  -22.8682 C   0  0  2  0  0  0  0  0  0  0  0  0
   -8.5430   -0.7603  -21.6431 C   0  0  0  0  0  0  0  0  0  0  0  0
   -9.0342    0.2328  -21.1429 O   0  0  0  0  0  0  0  0  0  0  0  0
   -7.3985   -1.3718  -21.1941 N   0  0  0  0  0  0  0  0  0  0  0  0
   -6.6031   -0.8022  -20.1762 C   0  0  0  0  0  0  0  0  0  0  0  0
   -6.9192   -1.0316  -18.8630 C   0  0  0  0  0  0  0  0  0  0  0  0
   -6.2161   -0.5423  -17.8171 N   0  0  0  0  0  0  0  0  0  0  0  0
   -5.1742    0.2057  -18.0835 C   0  0  0  0  0  0  0  0  0  0  0  0
   -4.7381    0.5270  -19.4010 C   0  0  0  0  0  0  0  0  0  0  0  0
   -3.6122    1.3583  -19.6425 C   0  0  0  0  0  0  0  0  0  0  0  0
   -3.2296    1.6557  -20.9222 C   0  0  0  0  0  0  0  0  0  0  0  0
   -3.9509    1.1393  -22.0202 C   0  0  0  0  0  0  0  0  0  0  0  0
   -5.0437    0.3305  -21.8132 C   0  0  0  0  0  0  0  0  0  0  0  0
   -5.4660    0.0021  -20.4937 C   0  0  0  0  0  0  0  0  0  0  0  0
   -5.6065   -0.0270  -22.6699 H   0  0  0  0  0  0  0  0  0  0  0  0
   -3.6557    1.3890  -23.0345 H   0  0  0  0  0  0  0  0  0  0  0  0
   -2.3727    2.2977  -21.0976 H   0  0  0  0  0  0  0  0  0  0  0  0
   -3.0766    1.7561  -18.7858 H   0  0  0  0  0  0  0  0  0  0  0  0
   -4.6135    0.6006  -17.2359 H   0  0  0  0  0  0  0  0  0  0  0  0
   -7.7839   -1.6463  -18.6251 H   0  0  0  0  0  0  0  0  0  0  0  0
   -7.0209   -2.5582  -21.9237 C   0  0  0  0  0  0  0  0  0  0  0  0
   -8.3000   -2.9058  -22.7090 C   0  0  2  0  0  0  0  0  0  0  0  0
   -8.0169   -3.6995  -24.0038 C   0  0  0  0  0  0  0  0  0  0  0  0
   -7.4944   -5.0367  -23.7907 N   0  0  0  0  0  0  0  0  0  0  0  0
   -6.1906   -5.3121  -23.5008 C   0  0  0  0  0  0  0  0  0  0  0  0
   -5.0934   -4.5415  -23.9365 C   0  0  0  0  0  0  0  0  0  0  0  0
   -3.8444   -4.9805  -23.5346 C   0  0  0  0  0  0  0  0  0  0  0  0
   -3.6470   -6.0399  -22.7450 N   0  0  0  0  0  0  0  0  0  0  0  0
   -4.7549   -6.7120  -22.4146 C   0  0  0  0  0  0  0  0  0  0  0  0
   -4.5886   -7.9041  -21.5185 C   0  0  0  0  0  0  0  0  0  0  0  0
   -3.5795   -8.3163  -21.6432 H   0  0  0  0  0  0  0  0  0  0  0  0
   -5.3794   -8.6379  -21.7205 H   0  0  0  0  0  0  0  0  0  0  0  0
   -4.7064   -7.5962  -20.4743 H   0  0  0  0  0  0  0  0  0  0  0  0
   -6.0025   -6.4195  -22.7744 N   0  0  0  0  0  0  0  0  0  0  0  0
   -2.9421   -4.4578  -23.8618 H   0  0  0  0  0  0  0  0  0  0  0  0
   -5.2096   -3.6494  -24.5473 H   0  0  0  0  0  0  0  0  0  0  0  0
   -8.1156   -5.7379  -23.4097 H   0  0  0  0  0  0  0  0  0  0  0  0
   -7.2841   -3.1609  -24.6133 H   0  0  0  0  0  0  0  0  0  0  0  0
   -8.9269   -3.7945  -24.6076 H   0  0  0  0  0  0  0  0  0  0  0  0
   -8.9109   -3.5437  -22.0618 H   0  0  0  0  0  0  0  0  0  0  0  0
   -6.1649   -2.3633  -22.5918 H   0  0  0  0  0  0  0  0  0  0  0  0
   -6.7219   -3.3450  -21.2251 H   0  0  0  0  0  0  0  0  0  0  0  0
  -10.5686   -1.6279  -22.8169 C   0  0  0  0  0  0  0  0  0  0  0  0
  -11.1996   -2.5430  -21.9716 C   0  0  0  0  0  0  0  0  0  0  0  0
  -12.5775   -2.5631  -21.8825 C   0  0  0  0  0  0  0  0  0  0  0  0
  -13.3250   -3.6918  -20.7969 Cl  0  0  0  0  0  0  0  0  0  0  0  0
  -13.3807   -1.6942  -22.6190 C   0  0  0  0  0  0  0  0  0  0  0  0
  -12.7609   -0.7579  -23.4179 C   0  0  0  0  0  0  0  0  0  0  0  0
  -11.3723   -0.7001  -23.4904 C   0  0  0  0  0  0  0  0  0  0  0  0
  -10.7717    0.4370  -24.2507 C   0  0  0  0  0  0  0  0  0  0  0  0
  -11.4533    1.3350  -24.7279 O   0  0  0  0  0  0  0  0  0  0  0  0
  -13.3210   -0.0288  -23.9890 H   0  0  0  0  0  0  0  0  0  0  0  0
  -14.4608   -1.7415  -22.5389 H   0  0  0  0  0  0  0  0  0  0  0  0
  -10.6323   -3.2350  -21.3612 H   0  0  0  0  0  0  0  0  0  0  0  0
   -7.5947   -0.5887  -24.1897 H   0  0  0  0  0  0  0  0  0  0  0  0
   -8.8805   -1.4877  -25.0251 H   0  0  0  0  0  0  0  0  0  0  0  0
   -8.1550    1.2842  -25.7817 H   0  0  0  0  0  0  0  0  0  0  0  0
   -9.5100    2.2870  -25.1797 H   0  0  0  0  0  0  0  0  0  0  0  0
   -9.2537    2.6721  -22.5677 H   0  0  0  0  0  0  0  0  0  0  0  0
   -6.7219    4.0764  -22.1625 H   0  0  0  0  0  0  0  0  0  0  0  0
   -7.9519    3.6348  -20.9487 H   0  0  0  0  0  0  0  0  0  0  0  0
   -6.7460    2.4289  -21.4644 H   0  0  0  0  0  0  0  0  0  0  0  0
  1  2  1  0
  2  3  1  0
  3  4  2  0
  3  5  1  0
  5  6  1  0
  6  7  1  0
  8  7  1  6
  8  9  1  0
  9 10  2  0
  9 11  1  0
 11 12  1  0
 12 13  2  0
 13 14  1  0
 14 15  2  0
 15 16  1  0
 16 17  2  0
 17 18  1  0
 18 19  2  0
 19 20  1  0
 20 21  2  0
 20 22  1  0
 19 23  1  0
 18 24  1  0
 17 25  1  0
 15 26  1  0
 13 27  1  0
 11 28  1  0
 28 29  1  0
 29 30  1  0
 30 31  1  0
 31 32  1  0
 32 33  2  0
 33 34  1  0
 34 35  2  0
 35 36  1  0
 36 37  1  0
 37 38  1  0
 37 39  1  0
 37 40  1  0
 36 41  2  0
 34 42  1  0
 33 43  1  0
 31 44  1  0
 30 45  1  0
 30 46  1  0
 29 47  1  1
 28 48  1  0
 28 49  1  0
  8 50  1  0
 50 51  2  0
 51 52  1  0
 52 53  1  0
 52 54  2  0
 54 55  1  0
 55 56  2  0
 56 57  1  0
 57 58  2  0
 55 59  1  0
 54 60  1  0
 51 61  1  0
  7 62  1  0
  7 63  1  0
  5 64  1  0
  5 65  1  0
  2 66  1  0
  1 67  1  0
  1 68  1  0
  1 69  1  0
 57  6  1  0
 29  8  1  0
 41 32  1  0
 56 50  1  0
 21 12  1  0
 21 16  1  0
M  END
>  <cnnaffinities>  (14) 
[6.74941]

>  <score>  (14) 
6.74941

>  <index>  (14) 
13

>  <Smiles>  (14) 
C(N(C(=O)C(N1C([C@@]2(C(=O)N(c3c(nc(c4c(c(c(c(c34)[H])[H])[H])[H])[H])[H])C([C@@]2(C(N(c2c(c(nc(C([H])([H])[H])n2)[H])[H])[H])([H])[H])[H])([H])[H])c2c(c(Cl)c(c(c2C1=O)[H])[H])[H])([H])[H])([H])[H])[H])([H])([H])[H]

>  <h>  (14) 
<NA>

>  <Training>  (14) 
True

>  <Success>  (14) 
True

>  <enamine_searched>  (14) 
False

>  <enamine_id>  (14) 
nan

$$$$

     RDKit          3D

 73 78  0  0  0  0  0  0  0  0999 V2000
   -7.9436   -3.7504  -24.0048 C   0  0  0  0  0  0  0  0  0  0  0  0
   -8.2978   -2.8749  -22.7987 C   0  0  1  0  0  0  0  0  0  0  0  0
   -7.0997   -2.6534  -21.8499 C   0  0  0  0  0  0  0  0  0  0  0  0
   -7.4058   -1.3925  -21.1996 N   0  0  0  0  0  0  0  0  0  0  0  0
   -6.6031   -0.8125  -20.1776 C   0  0  0  0  0  0  0  0  0  0  0  0
   -6.8988   -1.0491  -18.8602 C   0  0  0  0  0  0  0  0  0  0  0  0
   -6.1919   -0.5502  -17.8176 N   0  0  0  0  0  0  0  0  0  0  0  0
   -5.1635    0.2133  -18.0831 C   0  0  0  0  0  0  0  0  0  0  0  0
   -4.7342    0.5410  -19.4014 C   0  0  0  0  0  0  0  0  0  0  0  0
   -3.6069    1.3744  -19.6438 C   0  0  0  0  0  0  0  0  0  0  0  0
   -3.2172    1.6636  -20.9237 C   0  0  0  0  0  0  0  0  0  0  0  0
   -3.9343    1.1293  -22.0167 C   0  0  0  0  0  0  0  0  0  0  0  0
   -5.0285    0.3235  -21.8055 C   0  0  0  0  0  0  0  0  0  0  0  0
   -5.4693    0.0093  -20.4883 C   0  0  0  0  0  0  0  0  0  0  0  0
   -5.5600   -0.0889  -22.6568 H   0  0  0  0  0  0  0  0  0  0  0  0
   -3.6367    1.3712  -23.0336 H   0  0  0  0  0  0  0  0  0  0  0  0
   -2.3659    2.3140  -21.1022 H   0  0  0  0  0  0  0  0  0  0  0  0
   -3.0748    1.7801  -18.7881 H   0  0  0  0  0  0  0  0  0  0  0  0
   -4.6143    0.6171  -17.2318 H   0  0  0  0  0  0  0  0  0  0  0  0
   -7.7501   -1.6724  -18.5960 H   0  0  0  0  0  0  0  0  0  0  0  0
   -8.3894   -0.6642  -21.8323 C   0  0  0  0  0  0  0  0  0  0  0  0
   -8.8034    0.4050  -21.4365 O   0  0  0  0  0  0  0  0  0  0  0  0
   -8.8396   -1.4409  -23.1001 C   0  0  1  0  0  0  0  0  0  0  0  0
   -8.1528   -0.8414  -24.3595 C   0  0  0  0  0  0  0  0  0  0  0  0
   -8.5976    0.5091  -24.6292 N   0  0  0  0  0  0  0  0  0  0  0  0
   -7.6375    1.5710  -24.8904 C   0  0  0  0  0  0  0  0  0  0  0  0
   -7.5127    2.5179  -23.6949 C   0  0  0  0  0  0  0  0  0  0  0  0
   -6.4209    3.5546  -23.8641 N   0  0  0  0  0  4  0  0  0  0  0  0
   -6.7546    4.6752  -24.8434 C   0  0  0  0  0  0  0  0  0  0  0  0
   -7.7620    5.6765  -24.2712 C   0  0  0  0  0  0  0  0  0  0  0  0
   -7.3570    6.1618  -22.9543 N   0  0  0  0  0  0  0  0  0  0  0  0
   -6.5536    7.6058  -22.8373 S   0  0  0  0  0  0  0  0  0  0  0  0
   -6.0478    7.6921  -21.4801 O   0  0  0  0  0  0  0  0  0  0  0  0
   -7.4128    8.6297  -23.3996 O   0  0  0  0  0  0  0  0  0  0  0  0
   -5.1439    7.5258  -23.9319 C   0  0  0  0  0  0  0  0  0  0  0  0
   -5.5112    7.4996  -24.9624 H   0  0  0  0  0  0  0  0  0  0  0  0
   -4.5134    6.6675  -23.6889 H   0  0  0  0  0  0  0  0  0  0  0  0
   -4.6058    8.4632  -23.7587 H   0  0  0  0  0  0  0  0  0  0  0  0
   -7.0283    5.1114  -21.9925 C   0  0  0  0  0  0  0  0  0  0  0  0
   -5.9820    4.1544  -22.5433 C   0  0  0  0  0  0  0  0  0  0  0  0
   -5.0498    4.6980  -22.7145 H   0  0  0  0  0  0  0  0  0  0  0  0
   -5.7815    3.3395  -21.8420 H   0  0  0  0  0  0  0  0  0  0  0  0
   -7.9572    4.5754  -21.7695 H   0  0  0  0  0  0  0  0  0  0  0  0
   -6.6648    5.6159  -21.1016 H   0  0  0  0  0  0  0  0  0  0  0  0
   -8.7389    5.2009  -24.1402 H   0  0  0  0  0  0  0  0  0  0  0  0
   -7.8972    6.5356  -24.9325 H   0  0  0  0  0  0  0  0  0  0  0  0
   -7.1477    4.2400  -25.7605 H   0  0  0  0  0  0  0  0  0  0  0  0
   -5.8173    5.1841  -25.0807 H   0  0  0  0  0  0  0  0  0  0  0  0
   -5.5896    3.0492  -24.2257 H   0  0  0  0  0  0  0  0  0  0  0  0
   -7.2837    1.9431  -22.7927 H   0  0  0  0  0  0  0  0  0  0  0  0
   -8.4703    3.0199  -23.5398 H   0  0  0  0  0  0  0  0  0  0  0  0
   -6.6647    1.1088  -25.0946 H   0  0  0  0  0  0  0  0  0  0  0  0
   -7.9573    2.1128  -25.7841 H   0  0  0  0  0  0  0  0  0  0  0  0
   -9.9308    0.7961  -24.6780 C   0  0  0  0  0  0  0  0  0  0  0  0
  -10.3668    1.8316  -25.1710 O   0  0  0  0  0  0  0  0  0  0  0  0
  -10.8480   -0.2261  -24.0539 C   0  0  0  0  0  0  0  0  0  0  0  0
  -12.2248   -0.0484  -24.1977 C   0  0  0  0  0  0  0  0  0  0  0  0
  -13.1146   -0.8979  -23.5689 C   0  0  0  0  0  0  0  0  0  0  0  0
  -12.6110   -1.9162  -22.7614 C   0  0  0  0  0  0  0  0  0  0  0  0
  -13.7263   -2.9500  -21.9145 Cl  0  0  0  0  0  0  0  0  0  0  0  0
  -11.2500   -2.1115  -22.6064 C   0  0  0  0  0  0  0  0  0  0  0  0
  -10.3413   -1.2904  -23.2879 C   0  0  0  0  0  0  0  0  0  0  0  0
  -10.9185   -2.8911  -21.9285 H   0  0  0  0  0  0  0  0  0  0  0  0
  -14.1861   -0.7701  -23.6745 H   0  0  0  0  0  0  0  0  0  0  0  0
  -12.5691    0.7860  -24.7989 H   0  0  0  0  0  0  0  0  0  0  0  0
   -8.3807   -1.4919  -25.2191 H   0  0  0  0  0  0  0  0  0  0  0  0
   -7.0669   -0.8215  -24.2122 H   0  0  0  0  0  0  0  0  0  0  0  0
   -6.1523   -2.6024  -22.4114 H   0  0  0  0  0  0  0  0  0  0  0  0
   -6.9958   -3.4525  -21.1078 H   0  0  0  0  0  0  0  0  0  0  0  0
   -9.0730   -3.3826  -22.2182 H   0  0  0  0  0  0  0  0  0  0  0  0
   -7.0900   -3.3392  -24.5575 H   0  0  0  0  0  0  0  0  0  0  0  0
   -7.6640   -4.7603  -23.6861 H   0  0  0  0  0  0  0  0  0  0  0  0
   -8.7814   -3.8405  -24.7050 H   0  0  0  0  0  0  0  0  0  0  0  0
  1  2  1  0
  2  3  1  0
  3  4  1  0
  4  5  1  0
  5  6  2  0
  6  7  1  0
  7  8  2  0
  8  9  1  0
  9 10  2  0
 10 11  1  0
 11 12  2  0
 12 13  1  0
 13 14  2  0
 13 15  1  0
 12 16  1  0
 11 17  1  0
 10 18  1  0
  8 19  1  0
  6 20  1  0
  4 21  1  0
 21 22  2  0
 21 23  1  0
 23 24  1  6
 24 25  1  0
 25 26  1  0
 26 27  1  0
 27 28  1  0
 28 29  1  0
 29 30  1  0
 30 31  1  0
 31 32  1  0
 32 33  2  0
 32 34  2  0
 32 35  1  0
 35 36  1  0
 35 37  1  0
 35 38  1  0
 31 39  1  0
 39 40  1  0
 40 41  1  0
 40 42  1  0
 39 43  1  0
 39 44  1  0
 30 45  1  0
 30 46  1  0
 29 47  1  0
 29 48  1  0
 28 49  1  0
 27 50  1  0
 27 51  1  0
 26 52  1  0
 26 53  1  0
 25 54  1  0
 54 55  2  0
 54 56  1  0
 56 57  2  0
 57 58  1  0
 58 59  2  0
 59 60  1  0
 59 61  1  0
 61 62  2  0
 61 63  1  0
 58 64  1  0
 57 65  1  0
 24 66  1  0
 24 67  1  0
  3 68  1  0
  3 69  1  0
  2 70  1  1
  1 71  1  0
  1 72  1  0
  1 73  1  0
 23  2  1  0
 40 28  1  0
 62 56  1  0
 14  5  1  0
 62 23  1  0
 14  9  1  0
M  CHG  1  28   1
M  END
>  <cnnaffinities>  (15) 
[6.76087]

>  <score>  (15) 
6.76087

>  <index>  (15) 
14

>  <Smiles>  (15) 
C([C@]1(C(N(c2c(nc(c3c(c(c(c(c23)[H])[H])[H])[H])[H])[H])C(=O)[C@]21C(N(C(C([N+]1(C(C(N(S(=O)(=O)C([H])([H])[H])C(C1([H])[H])([H])[H])([H])[H])([H])[H])[H])([H])[H])([H])[H])C(=O)c1c(c(c(Cl)c(c21)[H])[H])[H])([H])[H])([H])[H])[H])([H])([H])[H]

>  <h>  (15) 
<NA>

>  <Training>  (15) 
True

>  <Success>  (15) 
True

>  <enamine_searched>  (15) 
False

>  <enamine_id>  (15) 
nan

$$$$

     RDKit          3D

 63 68  0  0  0  0  0  0  0  0999 V2000
   -7.4943    3.2825  -21.6641 C   0  0  0  0  0  0  0  0  0  0  0  0
   -8.4125    2.8474  -22.6990 N   0  0  0  0  0  0  0  0  0  0  0  0
   -7.8785    2.2068  -23.7579 C   0  0  0  0  0  0  0  0  0  0  0  0
   -6.6689    2.1241  -23.9233 O   0  0  0  0  0  0  0  0  0  0  0  0
   -8.8492    1.5937  -24.7743 C   0  0  0  0  0  0  0  0  0  0  0  0
   -9.5254    0.4042  -24.2899 N   0  0  0  0  0  0  0  0  0  0  0  0
   -8.7631   -0.8285  -24.1753 C   0  0  0  0  0  0  0  0  0  0  0  0
   -9.0915   -1.5822  -22.8598 C   0  0  2  0  0  0  0  0  0  0  0  0
   -8.5475   -0.7866  -21.6421 C   0  0  0  0  0  0  0  0  0  0  0  0
   -9.0373    0.2012  -21.1339 O   0  0  0  0  0  0  0  0  0  0  0  0
   -7.3884   -1.3890  -21.2083 N   0  0  0  0  0  0  0  0  0  0  0  0
   -6.5998   -0.8132  -20.1764 C   0  0  0  0  0  0  0  0  0  0  0  0
   -6.9055   -1.0446  -18.8591 C   0  0  0  0  0  0  0  0  0  0  0  0
   -6.1990   -0.5479  -17.8166 N   0  0  0  0  0  0  0  0  0  0  0  0
   -5.1654    0.2091  -18.0814 C   0  0  0  0  0  0  0  0  0  0  0  0
   -4.7290    0.5331  -19.3976 C   0  0  0  0  0  0  0  0  0  0  0  0
   -3.6051    1.3706  -19.6426 C   0  0  0  0  0  0  0  0  0  0  0  0
   -3.2251    1.6675  -20.9223 C   0  0  0  0  0  0  0  0  0  0  0  0
   -3.9501    1.1411  -22.0140 C   0  0  0  0  0  0  0  0  0  0  0  0
   -5.0385    0.3280  -21.8028 C   0  0  0  0  0  0  0  0  0  0  0  0
   -5.4630    0.0020  -20.4859 C   0  0  0  0  0  0  0  0  0  0  0  0
   -5.5997   -0.0519  -22.6520 H   0  0  0  0  0  0  0  0  0  0  0  0
   -3.6637    1.3853  -23.0316 H   0  0  0  0  0  0  0  0  0  0  0  0
   -2.3758    2.3221  -21.1024 H   0  0  0  0  0  0  0  0  0  0  0  0
   -3.0726    1.7750  -18.7855 H   0  0  0  0  0  0  0  0  0  0  0  0
   -4.6166    0.6121  -17.2299 H   0  0  0  0  0  0  0  0  0  0  0  0
   -7.7563   -1.6699  -18.5986 H   0  0  0  0  0  0  0  0  0  0  0  0
   -7.0233   -2.5863  -21.9375 C   0  0  0  0  0  0  0  0  0  0  0  0
   -8.2955   -2.9206  -22.7410 C   0  0  2  0  0  0  0  0  0  0  0  0
   -7.9704   -3.6679  -24.0520 C   0  0  0  0  0  0  0  0  0  0  0  0
   -7.3959   -4.9857  -23.8137 N   0  0  0  0  0  0  0  0  0  0  0  0
   -8.0723   -6.1189  -23.5160 C   0  0  0  0  0  0  0  0  0  0  0  0
   -7.1358   -7.1013  -23.2847 C   0  0  0  0  0  0  0  0  0  0  0  0
   -5.8993   -6.4444  -23.4769 C   0  0  0  0  0  0  0  0  0  0  0  0
   -6.0671   -5.1651  -23.7900 N   0  0  0  0  0  0  0  0  0  0  0  0
   -4.8869   -6.8303  -23.4048 H   0  0  0  0  0  0  0  0  0  0  0  0
   -7.3166   -8.1373  -23.0223 H   0  0  0  0  0  0  0  0  0  0  0  0
   -9.1569   -6.1159  -23.5007 H   0  0  0  0  0  0  0  0  0  0  0  0
   -7.2306   -3.1224  -24.6486 H   0  0  0  0  0  0  0  0  0  0  0  0
   -8.8813   -3.8162  -24.6452 H   0  0  0  0  0  0  0  0  0  0  0  0
   -8.9134   -3.5931  -22.1421 H   0  0  0  0  0  0  0  0  0  0  0  0
   -6.1641   -2.4053  -22.6035 H   0  0  0  0  0  0  0  0  0  0  0  0
   -6.7352   -3.3867  -21.2472 H   0  0  0  0  0  0  0  0  0  0  0  0
  -10.6058   -1.6842  -22.7521 C   0  0  0  0  0  0  0  0  0  0  0  0
  -11.1921   -2.6136  -21.8837 C   0  0  0  0  0  0  0  0  0  0  0  0
  -12.5675   -2.6721  -21.7549 C   0  0  0  0  0  0  0  0  0  0  0  0
  -13.2866   -3.8174  -20.6619 Cl  0  0  0  0  0  0  0  0  0  0  0  0
  -13.4037   -1.8153  -22.4690 C   0  0  0  0  0  0  0  0  0  0  0  0
  -12.8347   -0.8533  -23.2783 C   0  0  0  0  0  0  0  0  0  0  0  0
  -11.4476   -0.7641  -23.3967 C   0  0  0  0  0  0  0  0  0  0  0  0
  -10.8877    0.4010  -24.1607 C   0  0  0  0  0  0  0  0  0  0  0  0
  -11.6042    1.2920  -24.5970 O   0  0  0  0  0  0  0  0  0  0  0  0
  -13.4357   -0.1283  -23.8192 H   0  0  0  0  0  0  0  0  0  0  0  0
  -14.4782   -1.8975  -22.3589 H   0  0  0  0  0  0  0  0  0  0  0  0
  -10.5857   -3.2781  -21.2803 H   0  0  0  0  0  0  0  0  0  0  0  0
   -8.9769   -1.4906  -25.0307 H   0  0  0  0  0  0  0  0  0  0  0  0
   -7.7047   -0.5519  -24.1906 H   0  0  0  0  0  0  0  0  0  0  0  0
   -9.6465    2.2892  -25.0494 H   0  0  0  0  0  0  0  0  0  0  0  0
   -8.2345    1.3647  -25.6540 H   0  0  0  0  0  0  0  0  0  0  0  0
   -9.3987    2.7586  -22.5000 H   0  0  0  0  0  0  0  0  0  0  0  0
   -6.8434    2.4507  -21.3685 H   0  0  0  0  0  0  0  0  0  0  0  0
   -8.0725    3.6207  -20.8178 H   0  0  0  0  0  0  0  0  0  0  0  0
   -6.8638    4.0981  -22.0313 H   0  0  0  0  0  0  0  0  0  0  0  0
  1  2  1  0
  2  3  1  0
  3  4  2  0
  3  5  1  0
  5  6  1  0
  6  7  1  0
  8  7  1  6
  8  9  1  0
  9 10  2  0
  9 11  1  0
 11 12  1  0
 12 13  2  0
 13 14  1  0
 14 15  2  0
 15 16  1  0
 16 17  2  0
 17 18  1  0
 18 19  2  0
 19 20  1  0
 20 21  2  0
 20 22  1  0
 19 23  1  0
 18 24  1  0
 17 25  1  0
 15 26  1  0
 13 27  1  0
 11 28  1  0
 28 29  1  0
 29 30  1  0
 30 31  1  0
 31 32  1  0
 32 33  2  0
 33 34  1  0
 34 35  2  0
 34 36  1  0
 33 37  1  0
 32 38  1  0
 30 39  1  0
 30 40  1  0
 29 41  1  1
 28 42  1  0
 28 43  1  0
  8 44  1  0
 44 45  2  0
 45 46  1  0
 46 47  1  0
 46 48  2  0
 48 49  1  0
 49 50  2  0
 50 51  1  0
 51 52  2  0
 49 53  1  0
 48 54  1  0
 45 55  1  0
  7 56  1  0
  7 57  1  0
  5 58  1  0
  5 59  1  0
  2 60  1  0
  1 61  1  0
  1 62  1  0
  1 63  1  0
 51  6  1  0
 29  8  1  0
 35 31  1  0
 50 44  1  0
 21 12  1  0
 21 16  1  0
M  END
>  <cnnaffinities>  (16) 
[6.77181, 6.79058, 6.80561]

>  <score>  (16) 
6.77181

>  <index>  (16) 
15

>  <Smiles>  (16) 
C(N(C(=O)C(N1C([C@@]2(C(=O)N(c3c(nc(c4c(c(c(c(c34)[H])[H])[H])[H])[H])[H])C([C@@]2(C(n2c(c(c(n2)[H])[H])[H])([H])[H])[H])([H])[H])c2c(c(Cl)c(c(c2C1=O)[H])[H])[H])([H])[H])([H])[H])[H])([H])([H])[H]

>  <h>  (16) 
<NA>

>  <Training>  (16) 
True

>  <Success>  (16) 
True

>  <enamine_searched>  (16) 
False

>  <enamine_id>  (16) 
nan

$$$$

     RDKit          3D

 61 66  0  0  0  0  0  0  0  0999 V2000
  -12.4435    3.4795  -21.4120 C   0  0  0  0  0  0  0  0  0  0  0  0
  -12.4463    2.5517  -22.5285 N   0  0  0  0  0  0  0  0  0  0  0  0
  -11.3426    2.4095  -23.3029 C   0  0  0  0  0  0  0  0  0  0  0  0
  -10.3879    3.1712  -23.2641 O   0  0  0  0  0  0  0  0  0  0  0  0
  -11.3834    1.2292  -24.2910 C   0  0  0  0  0  0  0  0  0  0  0  0
  -11.2569   -0.0693  -23.6474 N   0  0  0  0  0  0  0  0  0  0  0  0
  -10.0760   -0.8768  -23.9285 C   0  0  0  0  0  0  0  0  0  0  0  0
   -9.6588   -1.8137  -22.7632 C   0  0  2  0  0  0  0  0  0  0  0  0
   -9.0529   -0.9431  -21.6255 C   0  0  0  0  0  0  0  0  0  0  0  0
   -9.5714   -0.0041  -21.0629 O   0  0  0  0  0  0  0  0  0  0  0  0
   -7.7647   -1.3521  -21.3798 N   0  0  0  0  0  0  0  0  0  0  0  0
   -6.9985   -0.7863  -20.3322 C   0  0  0  0  0  0  0  0  0  0  0  0
   -7.3853   -0.9317  -19.0251 C   0  0  0  0  0  0  0  0  0  0  0  0
   -6.6813   -0.4599  -17.9680 N   0  0  0  0  0  0  0  0  0  0  0  0
   -5.5619    0.1743  -18.2041 C   0  0  0  0  0  0  0  0  0  0  0  0
   -5.0421    0.3998  -19.5094 C   0  0  0  0  0  0  0  0  0  0  0  0
   -3.8335    1.1118  -19.7269 C   0  0  0  0  0  0  0  0  0  0  0  0
   -3.3846    1.3359  -20.9998 C   0  0  0  0  0  0  0  0  0  0  0  0
   -4.1185    0.8567  -22.1096 C   0  0  0  0  0  0  0  0  0  0  0  0
   -5.2870    0.1584  -21.9217 C   0  0  0  0  0  0  0  0  0  0  0  0
   -5.7770   -0.0929  -20.6124 C   0  0  0  0  0  0  0  0  0  0  0  0
   -5.8550   -0.1980  -22.7763 H   0  0  0  0  0  0  0  0  0  0  0  0
   -3.7601    1.0477  -23.1180 H   0  0  0  0  0  0  0  0  0  0  0  0
   -2.4672    1.8941  -21.1684 H   0  0  0  0  0  0  0  0  0  0  0  0
   -3.2867    1.4831  -18.8639 H   0  0  0  0  0  0  0  0  0  0  0  0
   -5.0122    0.5460  -17.3390 H   0  0  0  0  0  0  0  0  0  0  0  0
   -8.3044   -1.4582  -18.7747 H   0  0  0  0  0  0  0  0  0  0  0  0
   -7.4048   -2.5923  -22.0196 C   0  0  0  0  0  0  0  0  0  0  0  0
   -8.4541   -2.7586  -23.1335 C   0  0  2  0  0  0  0  0  0  0  0  0
   -7.8251   -2.5277  -24.5289 C   0  0  0  0  0  0  0  0  0  0  0  0
   -6.6928   -3.4151  -24.7696 N   0  0  0  0  0  0  0  0  0  0  0  0
   -6.8111   -4.7276  -24.8704 N   0  0  0  0  0  0  0  0  0  0  0  0
   -5.5484   -5.0890  -25.0446 C   0  0  0  0  0  0  0  0  0  0  0  0
   -4.7011   -4.0406  -25.0380 N   0  0  0  0  0  0  0  0  0  0  0  0
   -5.4503   -2.9867  -24.8566 N   0  0  0  0  0  0  0  0  0  0  0  0
   -5.2330   -6.1127  -25.1740 H   0  0  0  0  0  0  0  0  0  0  0  0
   -8.5590   -2.7435  -25.3076 H   0  0  0  0  0  0  0  0  0  0  0  0
   -7.4450   -1.5135  -24.6587 H   0  0  0  0  0  0  0  0  0  0  0  0
   -8.7828   -3.7987  -23.1674 H   0  0  0  0  0  0  0  0  0  0  0  0
   -7.4525   -3.4185  -21.2993 H   0  0  0  0  0  0  0  0  0  0  0  0
   -6.3813   -2.5515  -22.3945 H   0  0  0  0  0  0  0  0  0  0  0  0
  -10.9571   -2.5511  -22.3398 C   0  0  0  0  0  0  0  0  0  0  0  0
  -11.0835   -3.6683  -21.6194 C   0  0  0  0  0  0  0  0  0  0  0  0
  -12.9943   -3.7796  -21.1335 C   0  0  0  0  0  0  0  0  0  0  0  0
  -14.2126   -3.6555  -23.3372 Cl  0  0  0  0  0  0  0  0  0  0  0  0
  -13.0559   -3.7437  -20.7833 C   0  0  0  0  0  0  0  0  0  0  0  0
  -13.3816   -2.6723  -22.0614 C   0  0  0  0  0  0  0  0  0  0  0  0
  -12.2373   -1.9369  -22.5558 C   0  0  0  0  0  0  0  0  0  0  0  0
  -12.3953   -0.6212  -23.1285 C   0  0  0  0  0  0  0  0  0  0  0  0
  -13.4756   -0.0123  -23.1485 O   0  0  0  0  0  0  0  0  0  0  0  0
  -14.0496   -2.1970  -21.4278 H   0  0  0  0  0  0  0  0  0  0  0  0
  -13.1156   -3.0200  -19.9635 H   0  0  0  0  0  0  0  0  0  0  0  0
  -10.3881   -4.4331  -21.3296 H   0  0  0  0  0  0  0  0  0  0  0  0
   -9.2639   -0.1803  -24.1234 H   0  0  0  0  0  0  0  0  0  0  0  0
  -10.2581   -1.4889  -24.8203 H   0  0  0  0  0  0  0  0  0  0  0  0
  -12.3251    1.2356  -24.8451 H   0  0  0  0  0  0  0  0  0  0  0  0
  -10.5725    1.3672  -25.0087 H   0  0  0  0  0  0  0  0  0  0  0  0
  -13.1828    1.8553  -22.6070 H   0  0  0  0  0  0  0  0  0  0  0  0
  -13.4771    3.6809  -21.1139 H   0  0  0  0  0  0  0  0  0  0  0  0
  -11.9469    4.4104  -21.7045 H   0  0  0  0  0  0  0  0  0  0  0  0
  -11.8991    3.0777  -20.5481 H   0  0  0  0  0  0  0  0  0  0  0  0
  1  2  1  0
  2  3  1  0
  3  4  2  0
  3  5  1  0
  5  6  1  0
  6  7  1  0
  8  7  1  6
  8  9  1  0
  9 10  2  0
  9 11  1  0
 11 12  1  0
 12 13  2  0
 13 14  1  0
 14 15  2  0
 15 16  1  0
 16 17  2  0
 17 18  1  0
 18 19  2  0
 19 20  1  0
 20 21  2  0
 20 22  1  0
 19 23  1  0
 18 24  1  0
 17 25  1  0
 15 26  1  0
 13 27  1  0
 11 28  1  0
 28 29  1  0
 29 30  1  0
 30 31  1  0
 31 32  1  0
 32 33  2  0
 33 34  1  0
 34 35  2  0
 33 36  1  0
 30 37  1  0
 30 38  1  0
 29 39  1  6
 28 40  1  0
 28 41  1  0
  8 42  1  0
 42 43  2  0
 43 44  1  0
 44 45  1  0
 44 46  2  0
 46 47  1  0
 47 48  2  0
 48 49  1  0
 49 50  2  0
 47 51  1  0
 46 52  1  0
 43 53  1  0
  7 54  1  0
  7 55  1  0
  5 56  1  0
  5 57  1  0
  2 58  1  0
  1 59  1  0
  1 60  1  0
  1 61  1  0
 49  6  1  0
 29  8  1  0
 35 31  1  0
 48 42  1  0
 21 12  1  0
 21 16  1  0
M  END
>  <cnnaffinities>  (17) 
[7.12463]

>  <score>  (17) 
7.12463

>  <index>  (17) 
16

>  <Smiles>  (17) 
C(N(C(=O)C(N1C([C@@]2(C(=O)N(c3c(nc(c4c(c(c(c(c34)[H])[H])[H])[H])[H])[H])C([C@@]2(C(n2nc(nn2)[H])([H])[H])[H])([H])[H])c2c(c(Cl)c(c(c2C1=O)[H])[H])[H])([H])[H])([H])[H])[H])([H])([H])[H]

>  <h>  (17) 
<NA>

>  <Training>  (17) 
True

>  <Success>  (17) 
True

>  <enamine_searched>  (17) 
False

>  <enamine_id>  (17) 
nan

$$$$

     RDKit          3D

 38 41  0  0  0  0  0  0  0  0999 V2000
  -11.8749   -3.4274  -24.6649 C   0  0  0  0  0  0  0  0  0  0  0  0
  -10.4618   -2.9816  -24.2831 C   0  0  2  0  0  0  0  0  0  0  0  0
   -9.4909   -4.1590  -24.3114 C   0  0  0  0  0  0  0  0  0  0  0  0
   -8.0536   -3.7126  -24.0338 C   0  0  0  0  0  0  0  0  0  0  0  0
   -7.9931   -2.8092  -22.8874 C   0  0  0  0  0  0  0  0  0  0  0  0
   -6.8420   -2.4285  -22.1221 C   0  0  0  0  0  0  0  0  0  0  0  0
   -5.6909   -2.7977  -22.2058 O   0  0  0  0  0  1  0  0  0  0  0  0
   -7.3505   -1.4695  -21.1998 N   0  0  0  0  0  0  0  0  0  0  0  0
   -6.5786   -0.8417  -20.1830 C   0  0  0  0  0  0  0  0  0  0  0  0
   -6.8894   -1.0510  -18.8640 C   0  0  0  0  0  0  0  0  0  0  0  0
   -6.1874   -0.5388  -17.8213 N   0  0  0  0  0  0  0  0  0  0  0  0
   -5.1559    0.2173  -18.0790 C   0  0  0  0  0  0  0  0  0  0  0  0
   -4.7254    0.5364  -19.3941 C   0  0  0  0  0  0  0  0  0  0  0  0
   -3.5972    1.3686  -19.6297 C   0  0  0  0  0  0  0  0  0  0  0  0
   -3.2179    1.6708  -20.9070 C   0  0  0  0  0  0  0  0  0  0  0  0
   -3.9514    1.1588  -22.0010 C   0  0  0  0  0  0  0  0  0  0  0  0
   -5.0456    0.3586  -21.7961 C   0  0  0  0  0  0  0  0  0  0  0  0
   -5.4591    0.0062  -20.4846 C   0  0  0  0  0  0  0  0  0  0  0  0
   -5.6071   -0.0262  -22.6402 H   0  0  0  0  0  0  0  0  0  0  0  0
   -3.6546    1.4052  -23.0162 H   0  0  0  0  0  0  0  0  0  0  0  0
   -2.3646    2.3182  -21.0943 H   0  0  0  0  0  0  0  0  0  0  0  0
   -3.0581    1.7708  -18.7745 H   0  0  0  0  0  0  0  0  0  0  0  0
   -4.6079    0.6208  -17.2223 H   0  0  0  0  0  0  0  0  0  0  0  0
   -7.7350   -1.6723  -18.5861 H   0  0  0  0  0  0  0  0  0  0  0  0
   -8.7139   -1.2159  -21.4492 C   0  0  0  0  0  0  0  0  0  0  0  0
   -9.4138   -0.3730  -20.9419 O   0  0  0  0  0  0  0  0  0  0  0  0
   -9.0660   -2.1152  -22.4421 N   0  0  0  0  0  0  0  0  0  0  0  0
  -10.4314   -2.3146  -22.9069 C   0  0  0  0  0  0  0  0  0  0  0  0
  -10.9288   -1.3495  -22.9276 H   0  0  0  0  0  0  0  0  0  0  0  0
  -10.9890   -2.9181  -22.1872 H   0  0  0  0  0  0  0  0  0  0  0  0
   -7.6305   -3.2139  -24.9193 H   0  0  0  0  0  0  0  0  0  0  0  0
   -7.3937   -4.5619  -23.8362 H   0  0  0  0  0  0  0  0  0  0  0  0
   -9.8011   -4.8869  -23.5538 H   0  0  0  0  0  0  0  0  0  0  0  0
   -9.5407   -4.6651  -25.2809 H   0  0  0  0  0  0  0  0  0  0  0  0
  -10.1330   -2.2427  -25.0229 H   0  0  0  0  0  0  0  0  0  0  0  0
  -12.2546   -4.1872  -23.9714 H   0  0  0  0  0  0  0  0  0  0  0  0
  -12.5873   -2.5953  -24.6690 H   0  0  0  0  0  0  0  0  0  0  0  0
  -11.8961   -3.8766  -25.6647 H   0  0  0  0  0  0  0  0  0  0  0  0
  1  2  1  0
  2  3  1  0
  3  4  1  0
  4  5  1  0
  5  6  2  0
  6  7  1  0
  6  8  1  0
  8  9  1  0
  9 10  2  0
 10 11  1  0
 11 12  2  0
 12 13  1  0
 13 14  2  0
 14 15  1  0
 15 16  2  0
 16 17  1  0
 17 18  2  0
 17 19  1  0
 16 20  1  0
 15 21  1  0
 14 22  1  0
 12 23  1  0
 10 24  1  0
  8 25  1  0
 25 26  2  0
 25 27  1  0
 27 28  1  0
 28 29  1  0
 28 30  1  0
  4 31  1  0
  4 32  1  0
  3 33  1  0
  3 34  1  0
  2 35  1  6
  1 36  1  0
  1 37  1  0
  1 38  1  0
 28  2  1  0
 27  5  1  0
 18  9  1  0
 18 13  1  0
M  CHG  1   7  -1
M  END
>  <cnnaffinities>  (18) 
[5.07334, 4.92147]

>  <score>  (18) 
5.07334

>  <index>  (18) 
17

>  <Smiles>  (18) 
C([C@@]1(C(C(c2c([O-])n(c3c(nc(c4c(c(c(c(c34)[H])[H])[H])[H])[H])[H])c(=O)n2C1([H])[H])([H])[H])([H])[H])[H])([H])([H])[H]

>  <h>  (18) 
<NA>

>  <Training>  (18) 
True

>  <Success>  (18) 
True

>  <enamine_searched>  (18) 
False

>  <enamine_id>  (18) 
nan

$$$$

     RDKit          3D

 56 61  0  0  0  0  0  0  0  0999 V2000
  -10.4444   -1.1289  -23.2859 C   0  0  0  0  0  0  0  0  0  0  0  0
   -9.0003   -1.4694  -22.9472 C   0  0  1  0  0  0  0  0  0  0  0  0
   -8.3894   -0.5192  -21.9055 C   0  0  0  0  0  0  0  0  0  0  0  0
   -7.3908   -1.3448  -21.2442 N   0  0  0  0  0  0  0  0  0  0  0  0
   -6.5729   -0.8519  -20.1988 C   0  0  0  0  0  0  0  0  0  0  0  0
   -6.8809   -1.0977  -18.8865 C   0  0  0  0  0  0  0  0  0  0  0  0
   -6.2079   -0.5647  -17.8365 N   0  0  0  0  0  0  0  0  0  0  0  0
   -5.1916    0.2160  -18.0955 C   0  0  0  0  0  0  0  0  0  0  0  0
   -4.7448    0.5293  -19.4092 C   0  0  0  0  0  0  0  0  0  0  0  0
   -3.6165    1.3533  -19.6455 C   0  0  0  0  0  0  0  0  0  0  0  0
   -3.2139    1.6168  -20.9243 C   0  0  0  0  0  0  0  0  0  0  0  0
   -3.9165    1.0686  -22.0210 C   0  0  0  0  0  0  0  0  0  0  0  0
   -5.0112    0.2681  -21.8191 C   0  0  0  0  0  0  0  0  0  0  0  0
   -5.4560   -0.0151  -20.5026 C   0  0  0  0  0  0  0  0  0  0  0  0
   -5.5334   -0.1727  -22.6633 H   0  0  0  0  0  0  0  0  0  0  0  0
   -3.5854    1.2809  -23.0324 H   0  0  0  0  0  0  0  0  0  0  0  0
   -2.3580    2.2588  -21.1070 H   0  0  0  0  0  0  0  0  0  0  0  0
   -3.0877    1.7666  -18.7904 H   0  0  0  0  0  0  0  0  0  0  0  0
   -4.6548    0.6328  -17.2418 H   0  0  0  0  0  0  0  0  0  0  0  0
   -7.7231   -1.7373  -18.6318 H   0  0  0  0  0  0  0  0  0  0  0  0
   -7.5559   -2.6970  -21.4562 C   0  0  0  0  0  0  0  0  0  0  0  0
   -6.8261   -3.5609  -21.0127 O   0  0  0  0  0  0  0  0  0  0  0  0
   -8.7742   -2.9084  -22.3609 C   0  0  1  0  0  0  0  0  0  0  0  0
   -9.9627   -3.3698  -21.4840 C   0  0  0  0  0  0  0  0  0  0  0  0
  -11.0871   -3.8747  -22.2610 N   0  0  0  0  0  0  0  0  0  0  0  0
  -12.4518   -3.8382  -21.7382 C   0  0  0  0  0  0  0  0  0  0  0  0
  -13.2939   -2.7109  -22.2676 C   0  0  0  0  0  0  0  0  0  0  0  0
  -13.9335   -2.7275  -23.5307 C   0  0  0  0  0  0  0  0  0  0  0  0
  -14.6543   -1.5609  -23.5616 C   0  0  0  0  0  0  0  0  0  0  0  0
  -14.4057   -0.9266  -22.3954 N   0  0  0  0  0  0  0  0  0  0  0  0
  -13.5766   -1.6104  -21.5858 N   0  0  0  0  0  0  0  0  0  0  0  0
  -14.8561   -0.0911  -22.0516 H   0  0  0  0  0  0  0  0  0  0  0  0
  -15.3044   -1.1598  -24.3231 H   0  0  0  0  0  0  0  0  0  0  0  0
  -13.8454   -3.5017  -24.2830 H   0  0  0  0  0  0  0  0  0  0  0  0
  -12.9149   -4.7360  -22.1496 H   0  0  0  0  0  0  0  0  0  0  0  0
  -12.4559   -3.8987  -20.6442 H   0  0  0  0  0  0  0  0  0  0  0  0
  -10.9202   -4.5980  -23.4095 C   0  0  0  0  0  0  0  0  0  0  0  0
  -11.8660   -5.0644  -24.0366 O   0  0  0  0  0  0  0  0  0  0  0  0
   -9.5219   -4.7823  -23.8795 C   0  0  0  0  0  0  0  0  0  0  0  0
   -9.2746   -5.7569  -24.8453 C   0  0  0  0  0  0  0  0  0  0  0  0
   -8.0224   -5.9037  -25.4047 C   0  0  0  0  0  0  0  0  0  0  0  0
   -7.0261   -5.0434  -24.9590 C   0  0  0  0  0  0  0  0  0  0  0  0
   -5.8089   -5.1482  -25.5117 F   0  0  0  0  0  0  0  0  0  0  0  0
   -7.2295   -4.0965  -23.9749 C   0  0  0  0  0  0  0  0  0  0  0  0
   -8.4994   -3.9586  -23.4079 C   0  0  0  0  0  0  0  0  0  0  0  0
   -6.3900   -3.4981  -23.6393 H   0  0  0  0  0  0  0  0  0  0  0  0
   -7.8084   -6.6583  -26.1584 H   0  0  0  0  0  0  0  0  0  0  0  0
  -10.0906   -6.3960  -25.1577 H   0  0  0  0  0  0  0  0  0  0  0  0
   -9.6369   -4.1520  -20.7913 H   0  0  0  0  0  0  0  0  0  0  0  0
  -10.2973   -2.4935  -20.9202 H   0  0  0  0  0  0  0  0  0  0  0  0
   -9.1518   -0.1517  -21.1956 H   0  0  0  0  0  0  0  0  0  0  0  0
   -7.9262    0.3598  -22.3661 H   0  0  0  0  0  0  0  0  0  0  0  0
   -8.3899   -1.4332  -23.8600 H   0  0  0  0  0  0  0  0  0  0  0  0
  -10.8751   -1.9109  -23.9174 H   0  0  0  0  0  0  0  0  0  0  0  0
  -11.0427   -1.0829  -22.3705 H   0  0  0  0  0  0  0  0  0  0  0  0
  -10.5253   -0.1677  -23.8019 H   0  0  0  0  0  0  0  0  0  0  0  0
  1  2  1  0
  2  3  1  0
  3  4  1  0
  4  5  1  0
  5  6  2  0
  6  7  1  0
  7  8  2  0
  8  9  1  0
  9 10  2  0
 10 11  1  0
 11 12  2  0
 12 13  1  0
 13 14  2  0
 13 15  1  0
 12 16  1  0
 11 17  1  0
 10 18  1  0
  8 19  1  0
  6 20  1  0
  4 21  1  0
 21 22  2  0
 21 23  1  0
 23 24  1  1
 24 25  1  0
 25 26  1  0
 26 27  1  0
 27 28  1  0
 28 29  2  0
 29 30  1  0
 30 31  1  0
 30 32  1  0
 29 33  1  0
 28 34  1  0
 26 35  1  0
 26 36  1  0
 25 37  1  0
 37 38  2  0
 37 39  1  0
 39 40  2  0
 40 41  1  0
 41 42  2  0
 42 43  1  0
 42 44  1  0
 44 45  2  0
 44 46  1  0
 41 47  1  0
 40 48  1  0
 24 49  1  0
 24 50  1  0
  3 51  1  0
  3 52  1  0
  2 53  1  6
  1 54  1  0
  1 55  1  0
  1 56  1  0
 23  2  1  0
 31 27  2  0
 45 39  1  0
 14  5  1  0
 45 23  1  0
 14  9  1  0
M  END
>  <cnnaffinities>  (19) 
[6.83326]

>  <score>  (19) 
6.83326

>  <index>  (19) 
18

>  <Smiles>  (19) 
C([C@]1(C(N(c2c(nc(c3c(c(c(c(c23)[H])[H])[H])[H])[H])[H])C(=O)[C@]21C(N(C(c1c(c(n(n1)[H])[H])[H])([H])[H])C(=O)c1c(c(c(F)c(c21)[H])[H])[H])([H])[H])([H])[H])[H])([H])([H])[H]

>  <h>  (19) 
<NA>

>  <Training>  (19) 
True

>  <Success>  (19) 
True

>  <enamine_searched>  (19) 
False

>  <enamine_id>  (19) 
nan

$$$$

     RDKit          3D

 42 45  0  0  0  0  0  0  0  0999 V2000
   -9.1447   -0.0631  -20.7252 O   0  0  0  0  0  0  0  0  0  0  0  0
   -8.6544   -0.9069  -21.4506 C   0  0  0  0  0  0  0  0  0  0  0  0
   -9.3669   -1.5024  -22.6770 C   0  0  1  0  0  0  0  0  0  0  0  0
  -10.4390   -0.5575  -23.1875 C   0  0  0  0  0  0  0  0  0  0  0  0
  -10.1012    0.7542  -23.5119 C   0  0  0  0  0  0  0  0  0  0  0  0
  -11.0719    1.6267  -23.9697 C   0  0  0  0  0  0  0  0  0  0  0  0
  -12.3997    1.2396  -24.0852 C   0  0  0  0  0  0  0  0  0  0  0  0
  -13.5480    2.5027  -24.3778 Cl  0  0  0  0  0  0  0  0  0  0  0  0
  -12.7285   -0.0989  -23.8618 C   0  0  0  0  0  0  0  0  0  0  0  0
  -14.3315   -0.6913  -24.1120 Cl  0  0  0  0  0  0  0  0  0  0  0  0
  -11.7488   -0.9846  -23.4037 C   0  0  0  0  0  0  0  0  0  0  0  0
  -12.0453   -2.0123  -23.1889 H   0  0  0  0  0  0  0  0  0  0  0  0
  -10.8342    2.6527  -24.2064 H   0  0  0  0  0  0  0  0  0  0  0  0
   -9.0894    1.1207  -23.3399 H   0  0  0  0  0  0  0  0  0  0  0  0
   -8.3348   -1.7873  -23.7763 C   0  0  0  0  0  0  0  0  0  0  0  0
   -7.2408   -2.7558  -23.3384 C   0  0  2  0  0  0  0  0  0  0  0  0
   -7.5385   -4.1076  -23.6567 O   0  0  0  0  0  0  0  0  0  0  0  0
   -8.3981   -4.3161  -23.2677 H   0  0  0  0  0  0  0  0  0  0  0  0
   -6.9333   -2.6359  -21.8361 C   0  0  0  0  0  0  0  0  0  0  0  0
   -7.3745   -1.3762  -21.2549 N   0  0  0  0  0  0  0  0  0  0  0  0
   -6.6068   -0.8068  -20.1944 C   0  0  0  0  0  0  0  0  0  0  0  0
   -6.9069   -1.0508  -18.8787 C   0  0  0  0  0  0  0  0  0  0  0  0
   -6.1944   -0.5580  -17.8356 N   0  0  0  0  0  0  0  0  0  0  0  0
   -5.1631    0.2056  -18.0858 C   0  0  0  0  0  0  0  0  0  0  0  0
   -4.7237    0.5283  -19.3996 C   0  0  0  0  0  0  0  0  0  0  0  0
   -3.5961    1.3581  -19.6398 C   0  0  0  0  0  0  0  0  0  0  0  0
   -3.2103    1.6429  -20.9206 C   0  0  0  0  0  0  0  0  0  0  0  0
   -3.9319    1.1058  -22.0119 C   0  0  0  0  0  0  0  0  0  0  0  0
   -5.0225    0.3019  -21.8003 C   0  0  0  0  0  0  0  0  0  0  0  0
   -5.4546   -0.0027  -20.4857 C   0  0  0  0  0  0  0  0  0  0  0  0
   -5.5835   -0.0987  -22.6377 H   0  0  0  0  0  0  0  0  0  0  0  0
   -3.6304    1.3424  -23.0267 H   0  0  0  0  0  0  0  0  0  0  0  0
   -2.3592    2.2914  -21.1078 H   0  0  0  0  0  0  0  0  0  0  0  0
   -3.0636    1.7687  -18.7857 H   0  0  0  0  0  0  0  0  0  0  0  0
   -4.6208    0.6117  -17.2293 H   0  0  0  0  0  0  0  0  0  0  0  0
   -7.7540   -1.6694  -18.5925 H   0  0  0  0  0  0  0  0  0  0  0  0
   -7.3918   -3.5096  -21.3374 H   0  0  0  0  0  0  0  0  0  0  0  0
   -5.8583   -2.6953  -21.6673 H   0  0  0  0  0  0  0  0  0  0  0  0
   -6.3398   -2.5453  -23.9206 H   0  0  0  0  0  0  0  0  0  0  0  0
   -7.8965   -0.8302  -24.0871 H   0  0  0  0  0  0  0  0  0  0  0  0
   -8.8264   -2.2059  -24.6604 H   0  0  0  0  0  0  0  0  0  0  0  0
   -9.8481   -2.4443  -22.3770 H   0  0  0  0  0  0  0  0  0  0  0  0
  1  2  2  0
  2  3  1  0
  3  4  1  0
  4  5  2  0
  5  6  1  0
  6  7  2  0
  7  8  1  0
  7  9  1  0
  9 10  1  0
  9 11  2  0
 11 12  1  0
  6 13  1  0
  5 14  1  0
  3 15  1  0
 15 16  1  0
 16 17  1  0
 17 18  1  0
 16 19  1  0
 19 20  1  0
 20 21  1  0
 21 22  2  0
 22 23  1  0
 23 24  2  0
 24 25  1  0
 25 26  2  0
 26 27  1  0
 27 28  2  0
 28 29  1  0
 29 30  2  0
 29 31  1  0
 28 32  1  0
 27 33  1  0
 26 34  1  0
 24 35  1  0
 22 36  1  0
 19 37  1  0
 19 38  1  0
 16 39  1  6
 15 40  1  0
 15 41  1  0
  3 42  1  1
 20  2  1  0
 30 21  1  0
 11  4  1  0
 30 25  1  0
M  END
>  <cnnaffinities>  (20) 
[5.69609, 5.77141]

>  <score>  (20) 
5.69609

>  <index>  (20) 
19

>  <Smiles>  (20) 
O=C1[C@@](c2c(c(c(Cl)c(Cl)c2[H])[H])[H])(C([C@](O[H])(C(N1c1c(nc(c2c(c(c(c(c12)[H])[H])[H])[H])[H])[H])([H])[H])[H])([H])[H])[H]

>  <h>  (20) 
<NA>

>  <Training>  (20) 
True

>  <Success>  (20) 
True

>  <enamine_searched>  (20) 
False

>  <enamine_id>  (20) 
nan

$$$$

     RDKit          3D

 66 71  0  0  0  0  0  0  0  0999 V2000
   -7.4395    3.3251  -21.7331 C   0  0  0  0  0  0  0  0  0  0  0  0
   -8.3068    2.8722  -22.8040 N   0  0  0  0  0  0  0  0  0  0  0  0
   -7.7447    2.2111  -23.8395 C   0  0  0  0  0  0  0  0  0  0  0  0
   -6.5304    2.1195  -23.9743 O   0  0  0  0  0  0  0  0  0  0  0  0
   -8.7007    1.5930  -24.8644 C   0  0  0  0  0  0  0  0  0  0  0  0
   -9.4197    0.4368  -24.3645 N   0  0  0  0  0  0  0  0  0  0  0  0
   -8.6945   -0.8094  -24.2067 C   0  0  0  0  0  0  0  0  0  0  0  0
   -9.0736   -1.5291  -22.8879 C   0  0  2  0  0  0  0  0  0  0  0  0
   -8.5248   -0.7421  -21.6694 C   0  0  0  0  0  0  0  0  0  0  0  0
   -8.9855    0.2714  -21.1805 O   0  0  0  0  0  0  0  0  0  0  0  0
   -7.3987   -1.3818  -21.2039 N   0  0  0  0  0  0  0  0  0  0  0  0
   -6.6016   -0.8106  -20.1756 C   0  0  0  0  0  0  0  0  0  0  0  0
   -6.9077   -1.0418  -18.8593 C   0  0  0  0  0  0  0  0  0  0  0  0
   -6.2001   -0.5465  -17.8162 N   0  0  0  0  0  0  0  0  0  0  0  0
   -5.1654    0.2088  -18.0821 C   0  0  0  0  0  0  0  0  0  0  0  0
   -4.7287    0.5321  -19.3970 C   0  0  0  0  0  0  0  0  0  0  0  0
   -3.6024    1.3659  -19.6427 C   0  0  0  0  0  0  0  0  0  0  0  0
   -3.2171    1.6576  -20.9219 C   0  0  0  0  0  0  0  0  0  0  0  0
   -3.9408    1.1284  -22.0144 C   0  0  0  0  0  0  0  0  0  0  0  0
   -5.0331    0.3205  -21.8022 C   0  0  0  0  0  0  0  0  0  0  0  0
   -5.4640    0.0020  -20.4868 C   0  0  0  0  0  0  0  0  0  0  0  0
   -5.5903   -0.0647  -22.6520 H   0  0  0  0  0  0  0  0  0  0  0  0
   -3.6522    1.3690  -23.0319 H   0  0  0  0  0  0  0  0  0  0  0  0
   -2.3660    2.3099  -21.1016 H   0  0  0  0  0  0  0  0  0  0  0  0
   -3.0716    1.7725  -18.7849 H   0  0  0  0  0  0  0  0  0  0  0  0
   -4.6167    0.6115  -17.2293 H   0  0  0  0  0  0  0  0  0  0  0  0
   -7.7592   -1.6655  -18.5988 H   0  0  0  0  0  0  0  0  0  0  0  0
   -7.0550   -2.5870  -21.9321 C   0  0  0  0  0  0  0  0  0  0  0  0
   -8.3249   -2.8941  -22.7510 C   0  0  2  0  0  0  0  0  0  0  0  0
   -8.0184   -3.6737  -24.0490 C   0  0  0  0  0  0  0  0  0  0  0  0
   -7.4766   -5.0622  -23.7777 C   0  0  0  0  0  0  0  0  0  0  0  0
   -8.3519   -6.1165  -23.5010 C   0  0  0  0  0  0  0  0  0  0  0  0
   -7.8738   -7.3921  -23.2109 C   0  0  0  0  0  0  0  0  0  0  0  0
   -6.5022   -7.6354  -23.1913 C   0  0  0  0  0  0  0  0  0  0  0  0
   -5.6173   -6.5960  -23.4689 C   0  0  0  0  0  0  0  0  0  0  0  0
   -6.1026   -5.3213  -23.7571 C   0  0  0  0  0  0  0  0  0  0  0  0
   -5.4033   -4.5119  -23.9682 H   0  0  0  0  0  0  0  0  0  0  0  0
   -4.5442   -6.7806  -23.4617 H   0  0  0  0  0  0  0  0  0  0  0  0
   -6.1236   -8.6310  -22.9648 H   0  0  0  0  0  0  0  0  0  0  0  0
   -8.5766   -8.1969  -23.0019 H   0  0  0  0  0  0  0  0  0  0  0  0
   -9.4250   -5.9264  -23.5140 H   0  0  0  0  0  0  0  0  0  0  0  0
   -8.9365   -3.7518  -24.6491 H   0  0  0  0  0  0  0  0  0  0  0  0
   -7.2899   -3.1129  -24.6511 H   0  0  0  0  0  0  0  0  0  0  0  0
   -8.9703   -3.5342  -22.1436 H   0  0  0  0  0  0  0  0  0  0  0  0
   -6.7948   -3.4018  -21.2456 H   0  0  0  0  0  0  0  0  0  0  0  0
   -6.1807   -2.4237  -22.5839 H   0  0  0  0  0  0  0  0  0  0  0  0
  -10.5903   -1.5903  -22.8101 C   0  0  0  0  0  0  0  0  0  0  0  0
  -11.2160   -2.4904  -21.9391 C   0  0  0  0  0  0  0  0  0  0  0  0
  -12.5950   -2.5172  -21.8436 C   0  0  0  0  0  0  0  0  0  0  0  0
  -13.3608   -3.6345  -20.7518 Cl  0  0  0  0  0  0  0  0  0  0  0  0
  -13.3928   -1.6536  -22.5943 C   0  0  0  0  0  0  0  0  0  0  0  0
  -12.7832   -0.7211  -23.4092 C   0  0  0  0  0  0  0  0  0  0  0  0
  -11.3925   -0.6653  -23.4951 C   0  0  0  0  0  0  0  0  0  0  0  0
  -10.7858    0.4690  -24.2668 C   0  0  0  0  0  0  0  0  0  0  0  0
  -11.4694    1.3715  -24.7361 O   0  0  0  0  0  0  0  0  0  0  0  0
  -13.3507    0.0071  -23.9810 H   0  0  0  0  0  0  0  0  0  0  0  0
  -14.4715   -1.7060  -22.5095 H   0  0  0  0  0  0  0  0  0  0  0  0
  -10.6371   -3.1576  -21.3109 H   0  0  0  0  0  0  0  0  0  0  0  0
   -8.9046   -1.4837  -25.0538 H   0  0  0  0  0  0  0  0  0  0  0  0
   -7.6290   -0.5599  -24.2007 H   0  0  0  0  0  0  0  0  0  0  0  0
   -9.4770    2.2951  -25.1782 H   0  0  0  0  0  0  0  0  0  0  0  0
   -8.0687    1.3229  -25.7193 H   0  0  0  0  0  0  0  0  0  0  0  0
   -9.2995    2.7938  -22.6462 H   0  0  0  0  0  0  0  0  0  0  0  0
   -6.7645    4.1095  -22.0878 H   0  0  0  0  0  0  0  0  0  0  0  0
   -8.0691    3.7257  -20.9501 H   0  0  0  0  0  0  0  0  0  0  0  0
   -6.8334    2.4922  -21.3538 H   0  0  0  0  0  0  0  0  0  0  0  0
  1  2  1  0
  2  3  1  0
  3  4  2  0
  3  5  1  0
  5  6  1  0
  6  7  1  0
  8  7  1  6
  8  9  1  0
  9 10  2  0
  9 11  1  0
 11 12  1  0
 12 13  2  0
 13 14  1  0
 14 15  2  0
 15 16  1  0
 16 17  2  0
 17 18  1  0
 18 19  2  0
 19 20  1  0
 20 21  2  0
 20 22  1  0
 19 23  1  0
 18 24  1  0
 17 25  1  0
 15 26  1  0
 13 27  1  0
 11 28  1  0
 28 29  1  0
 29 30  1  0
 30 31  1  0
 31 32  2  0
 32 33  1  0
 33 34  2  0
 34 35  1  0
 35 36  2  0
 36 37  1  0
 35 38  1  0
 34 39  1  0
 33 40  1  0
 32 41  1  0
 30 42  1  0
 30 43  1  0
 29 44  1  1
 28 45  1  0
 28 46  1  0
  8 47  1  0
 47 48  2  0
 48 49  1  0
 49 50  1  0
 49 51  2  0
 51 52  1  0
 52 53  2  0
 53 54  1  0
 54 55  2  0
 52 56  1  0
 51 57  1  0
 48 58  1  0
  7 59  1  0
  7 60  1  0
  5 61  1  0
  5 62  1  0
  2 63  1  0
  1 64  1  0
  1 65  1  0
  1 66  1  0
 54  6  1  0
 29  8  1  0
 36 31  1  0
 53 47  1  0
 21 12  1  0
 21 16  1  0
M  END
>  <cnnaffinities>  (21) 
[6.92303, 6.90808]

>  <score>  (21) 
6.92303

>  <index>  (21) 
20

>  <Smiles>  (21) 
C(N(C(=O)C(N1C([C@@]2(C(=O)N(c3c(nc(c4c(c(c(c(c34)[H])[H])[H])[H])[H])[H])C([C@@]2(C(c2c(c(c(c(c2[H])[H])[H])[H])[H])([H])[H])[H])([H])[H])c2c(c(Cl)c(c(c2C1=O)[H])[H])[H])([H])[H])([H])[H])[H])([H])([H])[H]

>  <h>  (21) 
<NA>

>  <Training>  (21) 
True

>  <Success>  (21) 
True

>  <enamine_searched>  (21) 
False

>  <enamine_id>  (21) 
nan

$$$$

     RDKit          3D

 63 68  0  0  0  0  0  0  0  0999 V2000
  -10.4029   -1.0345  -23.3862 C   0  0  0  0  0  0  0  0  0  0  0  0
   -8.9819   -1.4081  -22.9844 C   0  0  1  0  0  0  0  0  0  0  0  0
   -8.3954   -0.4860  -21.9026 C   0  0  0  0  0  0  0  0  0  0  0  0
   -7.4103   -1.3267  -21.2511 N   0  0  0  0  0  0  0  0  0  0  0  0
   -6.5809   -0.8505  -20.2074 C   0  0  0  0  0  0  0  0  0  0  0  0
   -6.8842   -1.1140  -18.8965 C   0  0  0  0  0  0  0  0  0  0  0  0
   -6.2091   -0.5832  -17.8471 N   0  0  0  0  0  0  0  0  0  0  0  0
   -5.1987    0.2096  -18.0991 C   0  0  0  0  0  0  0  0  0  0  0  0
   -4.7506    0.5334  -19.4123 C   0  0  0  0  0  0  0  0  0  0  0  0
   -3.6243    1.3654  -19.6489 C   0  0  0  0  0  0  0  0  0  0  0  0
   -3.2192    1.6282  -20.9294 C   0  0  0  0  0  0  0  0  0  0  0  0
   -3.9150    1.0710  -22.0275 C   0  0  0  0  0  0  0  0  0  0  0  0
   -5.0085    0.2651  -21.8235 C   0  0  0  0  0  0  0  0  0  0  0  0
   -5.4568   -0.0152  -20.5061 C   0  0  0  0  0  0  0  0  0  0  0  0
   -5.5345   -0.1826  -22.6615 H   0  0  0  0  0  0  0  0  0  0  0  0
   -3.5824    1.2754  -23.0410 H   0  0  0  0  0  0  0  0  0  0  0  0
   -2.3573    2.2639  -21.1129 H   0  0  0  0  0  0  0  0  0  0  0  0
   -3.0947    1.7778  -18.7936 H   0  0  0  0  0  0  0  0  0  0  0  0
   -4.6712    0.6337  -17.2423 H   0  0  0  0  0  0  0  0  0  0  0  0
   -7.7144   -1.7698  -18.6393 H   0  0  0  0  0  0  0  0  0  0  0  0
   -7.6014   -2.6725  -21.4757 C   0  0  0  0  0  0  0  0  0  0  0  0
   -6.8922   -3.5399  -21.0046 O   0  0  0  0  0  0  0  0  0  0  0  0
   -8.7970   -2.8650  -22.4277 C   0  0  1  0  0  0  0  0  0  0  0  0
  -10.0237   -3.3135  -21.5938 C   0  0  0  0  0  0  0  0  0  0  0  0
  -11.1333   -3.8223  -22.3925 N   0  0  0  0  0  0  0  0  0  0  0  0
  -12.4905   -3.8674  -21.8644 C   0  0  0  0  0  0  0  0  0  0  0  0
  -13.3736   -2.8125  -22.5134 C   0  0  0  0  0  0  0  0  0  0  0  0
  -13.5583   -2.8398  -23.7218 O   0  0  0  0  0  0  0  0  0  0  0  0
  -13.9872   -1.8808  -21.7357 N   0  0  0  0  0  0  0  0  0  0  0  0
  -14.8016   -0.8759  -22.4032 C   0  0  0  0  0  0  0  0  0  0  0  0
  -14.0086    0.1083  -23.2408 C   0  0  0  0  0  0  0  0  0  0  0  0
  -14.3670    1.5709  -23.2768 C   0  0  0  0  0  0  0  0  0  0  0  0
  -13.0887    1.1246  -22.6221 C   0  0  0  0  0  0  0  0  0  0  0  0
  -12.1606    1.3293  -23.1516 H   0  0  0  0  0  0  0  0  0  0  0  0
  -12.9912    1.1864  -21.5379 H   0  0  0  0  0  0  0  0  0  0  0  0
  -15.1815    1.8993  -22.6289 H   0  0  0  0  0  0  0  0  0  0  0  0
  -14.3036    2.1382  -24.2052 H   0  0  0  0  0  0  0  0  0  0  0  0
  -13.6394   -0.3579  -24.1544 H   0  0  0  0  0  0  0  0  0  0  0  0
  -15.4706   -1.4337  -23.0549 H   0  0  0  0  0  0  0  0  0  0  0  0
  -15.4093   -0.3642  -21.6544 H   0  0  0  0  0  0  0  0  0  0  0  0
  -13.6326   -1.6890  -20.8164 H   0  0  0  0  0  0  0  0  0  0  0  0
  -12.5175   -3.9018  -20.7673 H   0  0  0  0  0  0  0  0  0  0  0  0
  -12.9254   -4.7851  -22.2719 H   0  0  0  0  0  0  0  0  0  0  0  0
  -10.9135   -4.6368  -23.4718 C   0  0  0  0  0  0  0  0  0  0  0  0
  -11.8089   -5.2642  -24.0154 O   0  0  0  0  0  0  0  0  0  0  0  0
   -9.5143   -4.7446  -23.9529 C   0  0  0  0  0  0  0  0  0  0  0  0
   -9.2782   -5.7300  -24.9075 C   0  0  0  0  0  0  0  0  0  0  0  0
   -8.0183   -5.9106  -25.4331 C   0  0  0  0  0  0  0  0  0  0  0  0
   -7.0087   -5.0649  -24.9856 C   0  0  0  0  0  0  0  0  0  0  0  0
   -5.7746   -5.2206  -25.4915 F   0  0  0  0  0  0  0  0  0  0  0  0
   -7.2112   -4.0927  -24.0219 C   0  0  0  0  0  0  0  0  0  0  0  0
   -8.4946   -3.9150  -23.4815 C   0  0  0  0  0  0  0  0  0  0  0  0
   -6.3559   -3.5258  -23.6667 H   0  0  0  0  0  0  0  0  0  0  0  0
   -7.8114   -6.6873  -26.1612 H   0  0  0  0  0  0  0  0  0  0  0  0
  -10.1129   -6.3553  -25.2062 H   0  0  0  0  0  0  0  0  0  0  0  0
   -9.7056   -4.0806  -20.8894 H   0  0  0  0  0  0  0  0  0  0  0  0
  -10.3491   -2.4558  -21.0014 H   0  0  0  0  0  0  0  0  0  0  0  0
   -9.1634   -0.1474  -21.1899 H   0  0  0  0  0  0  0  0  0  0  0  0
   -7.9361    0.4208  -22.3100 H   0  0  0  0  0  0  0  0  0  0  0  0
   -8.3326   -1.3498  -23.8655 H   0  0  0  0  0  0  0  0  0  0  0  0
  -10.8297   -1.7969  -24.0410 H   0  0  0  0  0  0  0  0  0  0  0  0
  -10.4447   -0.0734  -23.9058 H   0  0  0  0  0  0  0  0  0  0  0  0
  -11.0534   -0.9497  -22.5098 H   0  0  0  0  0  0  0  0  0  0  0  0
  1  2  1  0
  2  3  1  0
  3  4  1  0
  4  5  1  0
  5  6  2  0
  6  7  1  0
  7  8  2  0
  8  9  1  0
  9 10  2  0
 10 11  1  0
 11 12  2  0
 12 13  1  0
 13 14  2  0
 13 15  1  0
 12 16  1  0
 11 17  1  0
 10 18  1  0
  8 19  1  0
  6 20  1  0
  4 21  1  0
 21 22  2  0
 21 23  1  0
 23 24  1  1
 24 25  1  0
 25 26  1  0
 26 27  1  0
 27 28  2  0
 27 29  1  0
 29 30  1  0
 30 31  1  0
 31 32  1  0
 32 33  1  0
 33 34  1  0
 33 35  1  0
 32 36  1  0
 32 37  1  0
 31 38  1  0
 30 39  1  0
 30 40  1  0
 29 41  1  0
 26 42  1  0
 26 43  1  0
 25 44  1  0
 44 45  2  0
 44 46  1  0
 46 47  2  0
 47 48  1  0
 48 49  2  0
 49 50  1  0
 49 51  1  0
 51 52  2  0
 51 53  1  0
 48 54  1  0
 47 55  1  0
 24 56  1  0
 24 57  1  0
  3 58  1  0
  3 59  1  0
  2 60  1  6
  1 61  1  0
  1 62  1  0
  1 63  1  0
 23  2  1  0
 33 31  1  0
 52 46  1  0
 14  5  1  0
 52 23  1  0
 14  9  1  0
M  END
>  <cnnaffinities>  (22) 
[6.85961, 6.36851]

>  <score>  (22) 
6.85961

>  <index>  (22) 
21

>  <Smiles>  (22) 
C([C@]1(C(N(c2c(nc(c3c(c(c(c(c23)[H])[H])[H])[H])[H])[H])C(=O)[C@]21C(N(C(C(=O)N(C(C1(C(C1([H])[H])([H])[H])[H])([H])[H])[H])([H])[H])C(=O)c1c(c(c(F)c(c21)[H])[H])[H])([H])[H])([H])[H])[H])([H])([H])[H]

>  <h>  (22) 
<NA>

>  <Training>  (22) 
True

>  <Success>  (22) 
True

>  <enamine_searched>  (22) 
False

>  <enamine_id>  (22) 
nan

$$$$

     RDKit          3D

 68 73  0  0  0  0  0  0  0  0999 V2000
   -7.3414    3.4130  -21.7990 C   0  0  0  0  0  0  0  0  0  0  0  0
   -8.1312    2.9265  -22.9103 N   0  0  0  0  0  0  0  0  0  0  0  0
   -7.5206    2.2710  -23.9215 C   0  0  0  0  0  0  0  0  0  0  0  0
   -6.3029    2.2057  -24.0192 O   0  0  0  0  0  0  0  0  0  0  0  0
   -8.4469    1.6320  -24.9670 C   0  0  0  0  0  0  0  0  0  0  0  0
   -9.2443    0.5291  -24.4584 N   0  0  0  0  0  0  0  0  0  0  0  0
   -8.6005   -0.7594  -24.2630 C   0  0  0  0  0  0  0  0  0  0  0  0
   -9.0503   -1.4378  -22.9416 C   0  0  2  0  0  0  0  0  0  0  0  0
   -8.4865   -0.6549  -21.7219 C   0  0  0  0  0  0  0  0  0  0  0  0
   -8.8890    0.3948  -21.2705 O   0  0  0  0  0  0  0  0  0  0  0  0
   -7.4191   -1.3554  -21.2053 N   0  0  0  0  0  0  0  0  0  0  0  0
   -6.6088   -0.7997  -20.1784 C   0  0  0  0  0  0  0  0  0  0  0  0
   -6.9070   -1.0384  -18.8620 C   0  0  0  0  0  0  0  0  0  0  0  0
   -6.1958   -0.5481  -17.8176 N   0  0  0  0  0  0  0  0  0  0  0  0
   -5.1621    0.2090  -18.0804 C   0  0  0  0  0  0  0  0  0  0  0  0
   -4.7259    0.5327  -19.3946 C   0  0  0  0  0  0  0  0  0  0  0  0
   -3.5968    1.3628  -19.6400 C   0  0  0  0  0  0  0  0  0  0  0  0
   -3.2066    1.6489  -20.9193 C   0  0  0  0  0  0  0  0  0  0  0  0
   -3.9280    1.1155  -22.0123 C   0  0  0  0  0  0  0  0  0  0  0  0
   -5.0247    0.3154  -21.7995 C   0  0  0  0  0  0  0  0  0  0  0  0
   -5.4641    0.0067  -20.4847 C   0  0  0  0  0  0  0  0  0  0  0  0
   -5.5772   -0.0766  -22.6489 H   0  0  0  0  0  0  0  0  0  0  0  0
   -3.6376    1.3514  -23.0295 H   0  0  0  0  0  0  0  0  0  0  0  0
   -2.3542    2.2975  -21.1006 H   0  0  0  0  0  0  0  0  0  0  0  0
   -3.0674    1.7729  -18.7835 H   0  0  0  0  0  0  0  0  0  0  0  0
   -4.6156    0.6123  -17.2270 H   0  0  0  0  0  0  0  0  0  0  0  0
   -7.7570   -1.6628  -18.5991 H   0  0  0  0  0  0  0  0  0  0  0  0
   -7.1119   -2.5797  -21.9137 C   0  0  0  0  0  0  0  0  0  0  0  0
   -8.3801   -2.8418  -22.7498 C   0  0  2  0  0  0  0  0  0  0  0  0
   -8.0839   -3.6801  -24.0257 C   0  0  0  0  0  0  0  0  0  0  0  0
   -7.6916   -5.0604  -23.7950 N   0  0  0  0  0  0  0  0  0  0  0  0
   -6.4445   -5.4665  -23.3398 C   0  0  0  0  0  0  0  0  0  0  0  0
   -6.3288   -6.5795  -22.4881 C   0  0  0  0  0  0  0  0  0  0  0  0
   -5.0835   -7.0148  -22.0554 C   0  0  0  0  0  0  0  0  0  0  0  0
   -3.9215   -6.3662  -22.4655 C   0  0  0  0  0  0  0  0  0  0  0  0
   -4.0266   -5.2678  -23.3119 C   0  0  0  0  0  0  0  0  0  0  0  0
   -5.2691   -4.8177  -23.7443 C   0  0  0  0  0  0  0  0  0  0  0  0
   -5.3298   -3.9651  -24.4186 H   0  0  0  0  0  0  0  0  0  0  0  0
   -3.1323   -4.7497  -23.6534 H   0  0  0  0  0  0  0  0  0  0  0  0
   -2.9446   -6.7169  -22.1522 H   0  0  0  0  0  0  0  0  0  0  0  0
   -5.0218   -7.8829  -21.4012 H   0  0  0  0  0  0  0  0  0  0  0  0
   -7.2264   -7.1036  -22.1642 H   0  0  0  0  0  0  0  0  0  0  0  0
   -8.4426   -5.6912  -23.5646 H   0  0  0  0  0  0  0  0  0  0  0  0
   -8.9864   -3.7182  -24.6475 H   0  0  0  0  0  0  0  0  0  0  0  0
   -7.2983   -3.1834  -24.6158 H   0  0  0  0  0  0  0  0  0  0  0  0
   -9.0748   -3.4192  -22.1332 H   0  0  0  0  0  0  0  0  0  0  0  0
   -6.8895   -3.3974  -21.2193 H   0  0  0  0  0  0  0  0  0  0  0  0
   -6.2215   -2.4576  -22.5530 H   0  0  0  0  0  0  0  0  0  0  0  0
  -10.5702   -1.4025  -22.8910 C   0  0  0  0  0  0  0  0  0  0  0  0
  -11.2726   -2.2411  -22.0164 C   0  0  0  0  0  0  0  0  0  0  0  0
  -12.6524   -2.1849  -21.9552 C   0  0  0  0  0  0  0  0  0  0  0  0
  -13.5059   -3.2435  -20.8692 Cl  0  0  0  0  0  0  0  0  0  0  0  0
  -13.3807   -1.2847  -22.7317 C   0  0  0  0  0  0  0  0  0  0  0  0
  -12.6921   -0.4038  -23.5404 C   0  0  0  0  0  0  0  0  0  0  0  0
  -11.2985   -0.4353  -23.6022 C   0  0  0  0  0  0  0  0  0  0  0  0
  -10.6058    0.6517  -24.3742 C   0  0  0  0  0  0  0  0  0  0  0  0
  -11.2193    1.5946  -24.8542 O   0  0  0  0  0  0  0  0  0  0  0  0
  -13.2075    0.3488  -24.1265 H   0  0  0  0  0  0  0  0  0  0  0  0
  -14.4627   -1.2666  -22.6695 H   0  0  0  0  0  0  0  0  0  0  0  0
  -10.7582   -2.9254  -21.3515 H   0  0  0  0  0  0  0  0  0  0  0  0
   -7.5215   -0.5750  -24.2317 H   0  0  0  0  0  0  0  0  0  0  0  0
   -8.8223   -1.4296  -25.1097 H   0  0  0  0  0  0  0  0  0  0  0  0
   -7.7782    1.2965  -25.7668 H   0  0  0  0  0  0  0  0  0  0  0  0
   -9.1650    2.3541  -25.3703 H   0  0  0  0  0  0  0  0  0  0  0  0
   -9.1355    2.8697  -22.8091 H   0  0  0  0  0  0  0  0  0  0  0  0
   -6.6492    4.2006  -22.1218 H   0  0  0  0  0  0  0  0  0  0  0  0
   -6.7527    2.6014  -21.3420 H   0  0  0  0  0  0  0  0  0  0  0  0
   -8.0419    3.8275  -21.0805 H   0  0  0  0  0  0  0  0  0  0  0  0
  1  2  1  0
  2  3  1  0
  3  4  2  0
  3  5  1  0
  5  6  1  0
  6  7  1  0
  8  7  1  6
  8  9  1  0
  9 10  2  0
  9 11  1  0
 11 12  1  0
 12 13  2  0
 13 14  1  0
 14 15  2  0
 15 16  1  0
 16 17  2  0
 17 18  1  0
 18 19  2  0
 19 20  1  0
 20 21  2  0
 20 22  1  0
 19 23  1  0
 18 24  1  0
 17 25  1  0
 15 26  1  0
 13 27  1  0
 11 28  1  0
 28 29  1  0
 29 30  1  0
 30 31  1  0
 31 32  1  0
 32 33  2  0
 33 34  1  0
 34 35  2  0
 35 36  1  0
 36 37  2  0
 37 38  1  0
 36 39  1  0
 35 40  1  0
 34 41  1  0
 33 42  1  0
 31 43  1  0
 30 44  1  0
 30 45  1  0
 29 46  1  1
 28 47  1  0
 28 48  1  0
  8 49  1  0
 49 50  2  0
 50 51  1  0
 51 52  1  0
 51 53  2  0
 53 54  1  0
 54 55  2  0
 55 56  1  0
 56 57  2  0
 54 58  1  0
 53 59  1  0
 50 60  1  0
  7 61  1  0
  7 62  1  0
  5 63  1  0
  5 64  1  0
  2 65  1  0
  1 66  1  0
  1 67  1  0
  1 68  1  0
 56  6  1  0
 29  8  1  0
 37 32  1  0
 55 49  1  0
 21 12  1  0
 21 16  1  0
M  END
>  <cnnaffinities>  (23) 
[6.97414, 6.9311, 7.0567, 6.72511]

>  <score>  (23) 
6.97414

>  <index>  (23) 
23

>  <Smiles>  (23) 
C(N(C(=O)C(N1C([C@@]2(C(=O)N(c3c(nc(c4c(c(c(c(c34)[H])[H])[H])[H])[H])[H])C([C@@]2(C(N(c2c(c(c(c(c2[H])[H])[H])[H])[H])[H])([H])[H])[H])([H])[H])c2c(c(Cl)c(c(c2C1=O)[H])[H])[H])([H])[H])([H])[H])[H])([H])([H])[H]

>  <h>  (23) 
<NA>

>  <Training>  (23) 
True

>  <Success>  (23) 
True

>  <enamine_searched>  (23) 
False

>  <enamine_id>  (23) 
nan

$$$$

     RDKit          3D

 65 70  0  0  0  0  0  0  0  0999 V2000
   -9.2404    2.2465  -26.2370 O   0  0  0  0  0  0  0  0  0  0  0  0
   -9.2848    1.2124  -26.8858 C   0  0  0  0  0  0  0  0  0  0  0  0
   -8.5876   -0.0397  -26.3777 C   0  0  0  0  0  0  0  0  0  0  0  0
   -9.1836   -0.4505  -25.0948 N   0  0  1  0  0  4  0  0  0  0  0  0
  -10.6364   -0.7810  -25.2872 C   0  0  0  0  0  0  0  0  0  0  0  0
  -11.2696   -1.2976  -24.0229 C   0  0  0  0  0  0  0  0  0  0  0  0
  -12.6587   -1.3299  -23.9147 C   0  0  0  0  0  0  0  0  0  0  0  0
  -13.2782   -1.9795  -22.8607 C   0  0  0  0  0  0  0  0  0  0  0  0
  -12.4878   -2.5477  -21.8719 C   0  0  0  0  0  0  0  0  0  0  0  0
  -13.2642   -3.4450  -20.6039 Cl  0  0  0  0  0  0  0  0  0  0  0  0
  -11.1062   -2.4580  -21.9178 C   0  0  0  0  0  0  0  0  0  0  0  0
  -10.4792   -1.8665  -23.0161 C   0  0  0  0  0  0  0  0  0  0  0  0
   -8.9596   -1.8856  -23.1212 C   0  0  2  0  0  0  0  0  0  0  0  0
   -8.2685   -3.1436  -22.5709 C   0  0  0  0  0  0  0  0  0  0  0  0
   -7.4703   -2.7152  -21.3396 C   0  0  0  0  0  0  0  0  0  0  0  0
   -7.4867   -1.2620  -21.3633 N   0  0  0  0  0  0  0  0  0  0  0  0
   -6.7099   -0.6345  -20.3508 C   0  0  0  0  0  0  0  0  0  0  0  0
   -6.9825   -0.9612  -19.0422 C   0  0  0  0  0  0  0  0  0  0  0  0
   -6.3011   -0.5171  -17.9647 N   0  0  0  0  0  0  0  0  0  0  0  0
   -5.2570    0.2403  -18.1816 C   0  0  0  0  0  0  0  0  0  0  0  0
   -4.7897    0.5861  -19.4804 C   0  0  0  0  0  0  0  0  0  0  0  0
   -3.6142    1.3633  -19.6619 C   0  0  0  0  0  0  0  0  0  0  0  0
   -3.1468    1.6253  -20.9205 C   0  0  0  0  0  0  0  0  0  0  0  0
   -3.8181    1.1064  -22.0483 C   0  0  0  0  0  0  0  0  0  0  0  0
   -4.9645    0.3611  -21.8981 C   0  0  0  0  0  0  0  0  0  0  0  0
   -5.5071    0.1111  -20.6091 C   0  0  0  0  0  0  0  0  0  0  0  0
   -5.4549   -0.0526  -22.7719 H   0  0  0  0  0  0  0  0  0  0  0  0
   -3.4272    1.2990  -23.0433 H   0  0  0  0  0  0  0  0  0  0  0  0
   -2.2571    2.2344  -21.0562 H   0  0  0  0  0  0  0  0  0  0  0  0
   -3.1000    1.7325  -18.7773 H   0  0  0  0  0  0  0  0  0  0  0  0
   -4.7132    0.5946  -17.3062 H   0  0  0  0  0  0  0  0  0  0  0  0
   -7.8114   -1.6307  -18.8180 H   0  0  0  0  0  0  0  0  0  0  0  0
   -8.3018   -0.7348  -22.3374 C   0  0  0  0  0  0  0  0  0  0  0  0
   -8.4217    0.4384  -22.6671 O   0  0  0  0  0  0  0  0  0  0  0  0
   -7.9059   -3.0738  -20.4067 H   0  0  0  0  0  0  0  0  0  0  0  0
   -6.4275   -3.0521  -21.3697 H   0  0  0  0  0  0  0  0  0  0  0  0
   -7.5759   -3.5316  -23.3236 H   0  0  0  0  0  0  0  0  0  0  0  0
   -8.9717   -3.9487  -22.3503 H   0  0  0  0  0  0  0  0  0  0  0  0
   -8.5123   -1.6642  -24.5718 C   0  0  0  0  0  0  0  0  0  0  0  0
   -8.7563   -2.5365  -25.1980 H   0  0  0  0  0  0  0  0  0  0  0  0
   -7.4260   -1.5188  -24.5886 H   0  0  0  0  0  0  0  0  0  0  0  0
  -10.4995   -2.8708  -21.1210 H   0  0  0  0  0  0  0  0  0  0  0  0
  -14.3554   -2.0839  -22.8049 H   0  0  0  0  0  0  0  0  0  0  0  0
  -13.2846   -0.8877  -24.6835 H   0  0  0  0  0  0  0  0  0  0  0  0
  -10.6919   -1.5612  -26.0642 H   0  0  0  0  0  0  0  0  0  0  0  0
  -11.1631    0.0958  -25.6683 H   0  0  0  0  0  0  0  0  0  0  0  0
   -9.0618    0.3085  -24.3774 H   0  0  0  0  0  0  0  0  0  0  0  0
   -7.5253    0.1680  -26.2394 H   0  0  0  0  0  0  0  0  0  0  0  0
   -8.6771   -0.8741  -27.0826 H   0  0  0  0  0  0  0  0  0  0  0  0
   -9.9839    1.0601  -28.0459 N   0  0  0  0  0  0  0  0  0  0  0  0
  -10.7634    2.1302  -28.6372 C   0  0  0  0  0  0  0  0  0  0  0  0
  -10.0530    2.7702  -29.8219 C   0  0  1  0  0  0  0  0  0  0  0  0
   -9.9290    1.8737  -31.0874 C   0  0  0  0  0  0  0  0  0  0  0  0
  -10.6984    2.9334  -31.8997 C   0  0  1  0  0  0  0  0  0  0  0  0
  -11.8839    2.4442  -32.4310 F   0  0  0  0  0  0  0  0  0  0  0  0
  -10.9001    3.7879  -30.6310 C   0  0  0  0  0  0  0  0  0  0  0  0
  -10.5096    4.8122  -30.6722 H   0  0  0  0  0  0  0  0  0  0  0  0
  -11.9517    3.8390  -30.3240 H   0  0  0  0  0  0  0  0  0  0  0  0
  -10.1576    3.4180  -32.7227 H   0  0  0  0  0  0  0  0  0  0  0  0
  -10.5043    0.9405  -31.0318 H   0  0  0  0  0  0  0  0  0  0  0  0
   -8.9113    1.6331  -31.4189 H   0  0  0  0  0  0  0  0  0  0  0  0
   -9.0920    3.1791  -29.4923 H   0  0  0  0  0  0  0  0  0  0  0  0
  -10.9677    2.8790  -27.8629 H   0  0  0  0  0  0  0  0  0  0  0  0
  -11.7170    1.7326  -29.0023 H   0  0  0  0  0  0  0  0  0  0  0  0
  -10.0588    0.1368  -28.4515 H   0  0  0  0  0  0  0  0  0  0  0  0
  1  2  2  0
  2  3  1  0
  3  4  1  0
  4  5  1  0
  5  6  1  0
  6  7  2  0
  7  8  1  0
  8  9  2  0
  9 10  1  0
  9 11  1  0
 11 12  2  0
 12 13  1  0
 13 14  1  1
 14 15  1  0
 15 16  1  0
 16 17  1  0
 17 18  2  0
 18 19  1  0
 19 20  2  0
 20 21  1  0
 21 22  2  0
 22 23  1  0
 23 24  2  0
 24 25  1  0
 25 26  2  0
 25 27  1  0
 24 28  1  0
 23 29  1  0
 22 30  1  0
 20 31  1  0
 18 32  1  0
 16 33  1  0
 33 34  2  0
 15 35  1  0
 15 36  1  0
 14 37  1  0
 14 38  1  0
 13 39  1  0
 39 40  1  0
 39 41  1  0
 11 42  1  0
  8 43  1  0
  7 44  1  0
  5 45  1  0
  5 46  1  0
  4 47  1  1
  3 48  1  0
  3 49  1  0
  2 50  1  0
 50 51  1  0
 51 52  1  0
 52 53  1  0
 53 54  1  0
 54 55  1  0
 54 56  1  0
 56 57  1  0
 56 58  1  0
 54 59  1  6
 53 60  1  0
 53 61  1  0
 52 62  1  1
 51 63  1  0
 51 64  1  0
 50 65  1  0
 39  4  1  0
 56 52  1  0
 12  6  1  0
 33 13  1  0
 26 17  1  0
 26 21  1  0
M  CHG  1   4   1
M  END
>  <cnnaffinities>  (24) 
[5.69527]

>  <score>  (24) 
5.69527

>  <index>  (24) 
24

>  <Smiles>  (24) 
O=C(C([N@+]1(C(c2c(c(c(Cl)c(c2[C@@]2(C(C(N(c3c(nc(c4c(c(c(c(c34)[H])[H])[H])[H])[H])[H])C2=O)([H])[H])([H])[H])C1([H])[H])[H])[H])[H])([H])[H])[H])([H])[H])N(C([C@]1(C([C@@](F)(C1([H])[H])[H])([H])[H])[H])([H])[H])[H]

>  <h>  (24) 
<NA>

>  <Training>  (24) 
True

>  <Success>  (24) 
True

>  <enamine_searched>  (24) 
False

>  <enamine_id>  (24) 
nan

$$$$

     RDKit          3D

 70 75  0  0  0  0  0  0  0  0999 V2000
   -5.7806   -7.7699  -25.5504 O   0  0  0  0  0  0  0  0  0  0  0  0
   -5.6681   -7.1687  -24.4961 C   0  0  0  0  0  0  0  0  0  0  0  0
   -6.8487   -6.4181  -23.8689 C   0  0  0  0  0  0  0  0  0  0  0  0
   -6.7826   -4.9116  -23.9724 N   0  0  1  0  0  4  0  0  0  0  0  0
   -6.7628   -4.5230  -25.4508 C   0  0  0  0  0  0  0  0  0  0  0  0
   -6.7688   -3.0270  -25.6397 C   0  0  0  0  0  0  0  0  0  0  0  0
   -6.2819   -2.4796  -26.8288 C   0  0  0  0  0  0  0  0  0  0  0  0
   -6.2996   -1.1091  -27.0497 C   0  0  0  0  0  0  0  0  0  0  0  0
   -6.8115   -0.2775  -26.0604 C   0  0  0  0  0  0  0  0  0  0  0  0
   -6.8459    1.4473  -26.3167 Cl  0  0  0  0  0  0  0  0  0  0  0  0
   -7.3012   -0.8055  -24.8744 C   0  0  0  0  0  0  0  0  0  0  0  0
   -7.2938   -2.1850  -24.6588 C   0  0  0  0  0  0  0  0  0  0  0  0
   -7.8077   -2.7009  -23.3249 C   0  0  2  0  0  0  0  0  0  0  0  0
   -6.8337   -2.3352  -22.2095 C   0  0  0  0  0  0  0  0  0  0  0  0
   -5.7244   -2.8469  -22.1923 O   0  0  0  0  0  0  0  0  0  0  0  0
   -7.3081   -1.4343  -21.2725 N   0  0  0  0  0  0  0  0  0  0  0  0
   -6.5545   -0.8569  -20.2170 C   0  0  0  0  0  0  0  0  0  0  0  0
   -6.8929   -1.0593  -18.8970 C   0  0  0  0  0  0  0  0  0  0  0  0
   -6.2074   -0.5519  -17.8438 N   0  0  0  0  0  0  0  0  0  0  0  0
   -5.1693    0.2035  -18.0915 C   0  0  0  0  0  0  0  0  0  0  0  0
   -4.7299    0.5254  -19.4052 C   0  0  0  0  0  0  0  0  0  0  0  0
   -3.6106    1.3718  -19.6296 C   0  0  0  0  0  0  0  0  0  0  0  0
   -3.2382    1.6966  -20.9055 C   0  0  0  0  0  0  0  0  0  0  0  0
   -3.9715    1.2006  -22.0095 C   0  0  0  0  0  0  0  0  0  0  0  0
   -5.0534    0.3776  -21.8168 C   0  0  0  0  0  0  0  0  0  0  0  0
   -5.4466    0.0006  -20.5017 C   0  0  0  0  0  0  0  0  0  0  0  0
   -5.6160    0.0079  -22.6681 H   0  0  0  0  0  0  0  0  0  0  0  0
   -3.6788    1.4655  -23.0211 H   0  0  0  0  0  0  0  0  0  0  0  0
   -2.3873    2.3498  -21.0792 H   0  0  0  0  0  0  0  0  0  0  0  0
   -3.0771    1.7557  -18.7631 H   0  0  0  0  0  0  0  0  0  0  0  0
   -4.6229    0.5998  -17.2346 H   0  0  0  0  0  0  0  0  0  0  0  0
   -7.7491   -1.6754  -18.6229 H   0  0  0  0  0  0  0  0  0  0  0  0
   -8.3127   -1.3757  -21.1710 H   0  0  0  0  0  0  0  0  0  0  0  0
   -7.9867   -4.2222  -23.3149 C   0  0  0  0  0  0  0  0  0  0  0  0
   -8.8869   -4.4938  -23.8745 H   0  0  0  0  0  0  0  0  0  0  0  0
   -8.0823   -4.5742  -22.2853 H   0  0  0  0  0  0  0  0  0  0  0  0
   -8.7636   -2.2198  -23.1051 H   0  0  0  0  0  0  0  0  0  0  0  0
   -7.6897   -0.1405  -24.1084 H   0  0  0  0  0  0  0  0  0  0  0  0
   -5.9237   -0.6797  -27.9731 H   0  0  0  0  0  0  0  0  0  0  0  0
   -5.8799   -3.1367  -27.5980 H   0  0  0  0  0  0  0  0  0  0  0  0
   -7.6471   -4.9722  -25.9273 H   0  0  0  0  0  0  0  0  0  0  0  0
   -5.8940   -4.9755  -25.9330 H   0  0  0  0  0  0  0  0  0  0  0  0
   -5.9451   -4.4961  -23.4961 H   0  0  0  0  0  0  0  0  0  0  0  0
   -7.7274   -6.7795  -24.4087 H   0  0  0  0  0  0  0  0  0  0  0  0
   -6.9735   -6.6951  -22.8209 H   0  0  0  0  0  0  0  0  0  0  0  0
   -4.5032   -7.1165  -23.7843 N   0  0  0  0  0  0  0  0  0  0  0  0
   -3.2946   -7.7506  -24.1732 C   0  0  0  0  0  0  0  0  0  0  0  0
   -2.0720   -7.1092  -23.9614 C   0  0  0  0  0  0  0  0  0  0  0  0
   -0.8869   -7.7078  -24.3861 C   0  0  0  0  0  0  0  0  0  0  0  0
   -0.9059   -8.9502  -25.0256 C   0  0  0  0  0  0  0  0  0  0  0  0
    0.3191   -9.5452  -25.4765 N   0  0  0  0  0  0  0  0  0  0  0  0
    1.3336   -9.8743  -24.4768 C   0  0  0  0  0  0  0  0  0  0  0  0
    2.6528  -10.2403  -25.1421 C   0  0  0  0  0  0  0  0  0  0  0  0
    2.4253  -11.1937  -26.1510 O   0  0  0  0  0  0  0  0  0  0  0  0
    1.7034  -10.6244  -27.2099 C   0  0  0  0  0  0  0  0  0  0  0  0
    0.4040   -9.9431  -26.7878 C   0  0  0  0  0  0  0  0  0  0  0  0
   -0.4693   -9.7270  -27.6086 O   0  0  0  0  0  0  0  0  0  0  0  0
    2.3118   -9.8663  -27.7327 H   0  0  0  0  0  0  0  0  0  0  0  0
    1.4533  -11.4276  -27.9062 H   0  0  0  0  0  0  0  0  0  0  0  0
    3.1444   -9.3540  -25.5712 H   0  0  0  0  0  0  0  0  0  0  0  0
    3.3360  -10.6977  -24.4185 H   0  0  0  0  0  0  0  0  0  0  0  0
    1.4734   -9.0105  -23.8192 H   0  0  0  0  0  0  0  0  0  0  0  0
    0.9798  -10.7222  -23.8758 H   0  0  0  0  0  0  0  0  0  0  0  0
   -2.1293   -9.6066  -25.1956 C   0  0  0  0  0  0  0  0  0  0  0  0
   -3.3124   -9.0093  -24.7738 C   0  0  0  0  0  0  0  0  0  0  0  0
   -4.2642   -9.5026  -24.9308 H   0  0  0  0  0  0  0  0  0  0  0  0
   -2.1641  -10.5781  -25.6887 H   0  0  0  0  0  0  0  0  0  0  0  0
    0.0598   -7.1897  -24.2333 H   0  0  0  0  0  0  0  0  0  0  0  0
   -2.0419   -6.1408  -23.4678 H   0  0  0  0  0  0  0  0  0  0  0  0
   -4.4973   -6.5231  -22.9718 H   0  0  0  0  0  0  0  0  0  0  0  0
  1  2  2  0
  2  3  1  0
  3  4  1  0
  4  5  1  0
  5  6  1  0
  6  7  2  0
  7  8  1  0
  8  9  2  0
  9 10  1  0
  9 11  1  0
 11 12  2  0
 12 13  1  0
 13 14  1  0
 14 15  2  0
 14 16  1  0
 16 17  1  0
 17 18  2  0
 18 19  1  0
 19 20  2  0
 20 21  1  0
 21 22  2  0
 22 23  1  0
 23 24  2  0
 24 25  1  0
 25 26  2  0
 25 27  1  0
 24 28  1  0
 23 29  1  0
 22 30  1  0
 20 31  1  0
 18 32  1  0
 16 33  1  0
 13 34  1  0
 34 35  1  0
 34 36  1  0
 13 37  1  1
 11 38  1  0
  8 39  1  0
  7 40  1  0
  5 41  1  0
  5 42  1  0
  4 43  1  1
  3 44  1  0
  3 45  1  0
  2 46  1  0
 46 47  1  0
 47 48  2  0
 48 49  1  0
 49 50  2  0
 50 51  1  0
 51 52  1  0
 52 53  1  0
 53 54  1  0
 54 55  1  0
 55 56  1  0
 56 57  2  0
 55 58  1  0
 55 59  1  0
 53 60  1  0
 53 61  1  0
 52 62  1  0
 52 63  1  0
 50 64  1  0
 64 65  2  0
 65 66  1  0
 64 67  1  0
 49 68  1  0
 48 69  1  0
 46 70  1  0
 34  4  1  0
 65 47  1  0
 12  6  1  0
 26 17  1  0
 56 51  1  0
 26 21  1  0
M  CHG  1   4   1
M  END
>  <cnnaffinities>  (25) 
[6.17861, 6.27909, 6.47243]

>  <score>  (25) 
6.17861

>  <index>  (25) 
25

>  <Smiles>  (25) 
O=C(C([N@+]1(C(c2c(c(c(Cl)c(c2[C@](C(=O)N(c2c(nc(c3c(c(c(c(c23)[H])[H])[H])[H])[H])[H])[H])(C1([H])[H])[H])[H])[H])[H])([H])[H])[H])([H])[H])N(c1c(c(c(N2C(C(OC(C2=O)([H])[H])([H])[H])([H])[H])c(c1[H])[H])[H])[H])[H]

>  <h>  (25) 
<NA>

>  <Training>  (25) 
True

>  <Success>  (25) 
True

>  <enamine_searched>  (25) 
False

>  <enamine_id>  (25) 
nan

$$$$

     RDKit          3D

 55 60  0  0  0  0  0  0  0  0999 V2000
  -10.4363   -1.0327  -23.3572 C   0  0  0  0  0  0  0  0  0  0  0  0
   -8.9947   -1.3919  -22.9985 C   0  0  1  0  0  0  0  0  0  0  0  0
   -8.3967   -0.4778  -21.9125 C   0  0  0  0  0  0  0  0  0  0  0  0
   -7.3991   -1.3167  -21.2743 N   0  0  0  0  0  0  0  0  0  0  0  0
   -6.5808   -0.8446  -20.2182 C   0  0  0  0  0  0  0  0  0  0  0  0
   -6.8852   -1.1175  -18.9085 C   0  0  0  0  0  0  0  0  0  0  0  0
   -6.2140   -0.5887  -17.8546 N   0  0  0  0  0  0  0  0  0  0  0  0
   -5.2041    0.2064  -18.1037 C   0  0  0  0  0  0  0  0  0  0  0  0
   -4.7505    0.5335  -19.4152 C   0  0  0  0  0  0  0  0  0  0  0  0
   -3.6264    1.3682  -19.6524 C   0  0  0  0  0  0  0  0  0  0  0  0
   -3.2197    1.6297  -20.9331 C   0  0  0  0  0  0  0  0  0  0  0  0
   -3.9120    1.0733  -22.0324 C   0  0  0  0  0  0  0  0  0  0  0  0
   -5.0046    0.2669  -21.8285 C   0  0  0  0  0  0  0  0  0  0  0  0
   -5.4541   -0.0119  -20.5109 C   0  0  0  0  0  0  0  0  0  0  0  0
   -5.5311   -0.1787  -22.6667 H   0  0  0  0  0  0  0  0  0  0  0  0
   -3.5767    1.2785  -23.0456 H   0  0  0  0  0  0  0  0  0  0  0  0
   -2.3563    2.2648  -21.1132 H   0  0  0  0  0  0  0  0  0  0  0  0
   -3.0989    1.7794  -18.7955 H   0  0  0  0  0  0  0  0  0  0  0  0
   -4.6822    0.6316  -17.2451 H   0  0  0  0  0  0  0  0  0  0  0  0
   -7.7121   -1.7810  -18.6586 H   0  0  0  0  0  0  0  0  0  0  0  0
   -7.5816   -2.6619  -21.5032 C   0  0  0  0  0  0  0  0  0  0  0  0
   -6.8761   -3.5276  -21.0231 O   0  0  0  0  0  0  0  0  0  0  0  0
   -8.7782   -2.8497  -22.4520 C   0  0  1  0  0  0  0  0  0  0  0  0
   -9.9878   -3.3008  -21.5937 C   0  0  0  0  0  0  0  0  0  0  0  0
  -11.1151   -3.7932  -22.3834 N   0  0  0  0  0  0  0  0  0  0  0  0
  -12.4884   -3.7631  -21.8745 C   0  0  0  0  0  0  0  0  0  0  0  0
  -13.3521   -2.6524  -22.4140 C   0  0  0  0  0  0  0  0  0  0  0  0
  -14.0210   -2.5488  -23.6460 C   0  0  0  0  0  0  0  0  0  0  0  0
  -14.7149   -1.4133  -23.6711 N   0  0  0  0  0  0  0  0  0  0  0  0
  -14.4299   -0.8735  -22.5026 N   0  0  0  0  0  0  0  0  0  0  0  0
  -13.6404   -1.5665  -21.7020 N   0  0  0  0  0  0  0  0  0  0  0  0
  -14.8931   -0.0444  -22.1518 H   0  0  0  0  0  0  0  0  0  0  0  0
  -14.0869   -3.2540  -24.4687 H   0  0  0  0  0  0  0  0  0  0  0  0
  -12.4903   -3.7114  -20.7864 H   0  0  0  0  0  0  0  0  0  0  0  0
  -12.9573   -4.6974  -22.1931 H   0  0  0  0  0  0  0  0  0  0  0  0
  -10.9364   -4.5330  -23.5196 C   0  0  0  0  0  0  0  0  0  0  0  0
  -11.8874   -5.0332  -24.1155 O   0  0  0  0  0  0  0  0  0  0  0  0
   -9.5325   -4.7073  -23.9838 C   0  0  0  0  0  0  0  0  0  0  0  0
   -9.2958   -5.7060  -24.9226 C   0  0  0  0  0  0  0  0  0  0  0  0
   -8.0302   -5.9116  -25.4320 C   0  0  0  0  0  0  0  0  0  0  0  0
   -7.0095   -5.0759  -24.9939 C   0  0  0  0  0  0  0  0  0  0  0  0
   -5.7786   -5.2471  -25.5047 F   0  0  0  0  0  0  0  0  0  0  0  0
   -7.2083   -4.0884  -24.0468 C   0  0  0  0  0  0  0  0  0  0  0  0
   -8.4925   -3.9011  -23.5080 C   0  0  0  0  0  0  0  0  0  0  0  0
   -6.3480   -3.5185  -23.7065 H   0  0  0  0  0  0  0  0  0  0  0  0
   -7.8198   -6.7057  -26.1399 H   0  0  0  0  0  0  0  0  0  0  0  0
  -10.1377   -6.3163  -25.2309 H   0  0  0  0  0  0  0  0  0  0  0  0
  -10.3069   -2.4512  -20.9806 H   0  0  0  0  0  0  0  0  0  0  0  0
   -9.6498   -4.0687  -20.8969 H   0  0  0  0  0  0  0  0  0  0  0  0
   -9.1577   -0.1588  -21.1829 H   0  0  0  0  0  0  0  0  0  0  0  0
   -7.9442    0.4350  -22.3157 H   0  0  0  0  0  0  0  0  0  0  0  0
   -8.3645   -1.3096  -23.8932 H   0  0  0  0  0  0  0  0  0  0  0  0
  -10.5008   -0.0656  -23.8608 H   0  0  0  0  0  0  0  0  0  0  0  0
  -10.8739   -1.7918  -24.0127 H   0  0  0  0  0  0  0  0  0  0  0  0
  -11.0671   -0.9696  -22.4648 H   0  0  0  0  0  0  0  0  0  0  0  0
  1  2  1  0
  2  3  1  0
  3  4  1  0
  4  5  1  0
  5  6  2  0
  6  7  1  0
  7  8  2  0
  8  9  1  0
  9 10  2  0
 10 11  1  0
 11 12  2  0
 12 13  1  0
 13 14  2  0
 13 15  1  0
 12 16  1  0
 11 17  1  0
 10 18  1  0
  8 19  1  0
  6 20  1  0
  4 21  1  0
 21 22  2  0
 21 23  1  0
 23 24  1  1
 24 25  1  0
 25 26  1  0
 26 27  1  0
 27 28  1  0
 28 29  2  0
 29 30  1  0
 30 31  1  0
 30 32  1  0
 28 33  1  0
 26 34  1  0
 26 35  1  0
 25 36  1  0
 36 37  2  0
 36 38  1  0
 38 39  2  0
 39 40  1  0
 40 41  2  0
 41 42  1  0
 41 43  1  0
 43 44  2  0
 43 45  1  0
 40 46  1  0
 39 47  1  0
 24 48  1  0
 24 49  1  0
  3 50  1  0
  3 51  1  0
  2 52  1  6
  1 53  1  0
  1 54  1  0
  1 55  1  0
 23  2  1  0
 31 27  2  0
 44 38  1  0
 14  5  1  0
 44 23  1  0
 14  9  1  0
M  END
>  <cnnaffinities>  (26) 
[6.97394]

>  <score>  (26) 
6.97394

>  <index>  (26) 
26

>  <Smiles>  (26) 
C([C@]1(C(N(c2c(nc(c3c(c(c(c(c23)[H])[H])[H])[H])[H])[H])C(=O)[C@]21C(N(C(c1c(nn(n1)[H])[H])([H])[H])C(=O)c1c(c(c(F)c(c21)[H])[H])[H])([H])[H])([H])[H])[H])([H])([H])[H]

>  <h>  (26) 
<NA>

>  <Training>  (26) 
True

>  <Success>  (26) 
True

>  <enamine_searched>  (26) 
False

>  <enamine_id>  (26) 
nan

$$$$

     RDKit          3D

 58 62  0  0  0  0  0  0  0  0999 V2000
  -14.9134   -3.2712  -23.3790 C   0  0  0  0  0  0  0  0  0  0  0  0
  -13.6564   -2.5382  -23.1513 N   0  0  0  0  0  4  0  0  0  0  0  0
  -13.2179   -2.5725  -21.7320 C   0  0  0  0  0  0  0  0  0  0  0  0
  -12.3862   -3.8320  -21.5315 C   0  0  0  0  0  0  0  0  0  0  0  0
  -11.1038   -3.7618  -22.2223 N   0  0  0  0  0  0  0  0  0  0  0  0
   -9.9467   -3.2252  -21.5212 C   0  0  0  0  0  0  0  0  0  0  0  0
   -8.7661   -2.8068  -22.4404 C   0  0  2  0  0  0  0  0  0  0  0  0
   -7.5444   -2.6365  -21.5188 C   0  0  0  0  0  0  0  0  0  0  0  0
   -6.8356   -3.5063  -21.0539 O   0  0  0  0  0  0  0  0  0  0  0  0
   -7.3842   -1.2937  -21.2559 N   0  0  0  0  0  0  0  0  0  0  0  0
   -6.5668   -0.8312  -20.1995 C   0  0  0  0  0  0  0  0  0  0  0  0
   -6.8678   -1.1151  -18.8935 C   0  0  0  0  0  0  0  0  0  0  0  0
   -6.1991   -0.5854  -17.8397 N   0  0  0  0  0  0  0  0  0  0  0  0
   -5.1940    0.2147  -18.0928 C   0  0  0  0  0  0  0  0  0  0  0  0
   -4.7411    0.5427  -19.4039 C   0  0  0  0  0  0  0  0  0  0  0  0
   -3.6222    1.3788  -19.6480 C   0  0  0  0  0  0  0  0  0  0  0  0
   -3.2186    1.6358  -20.9299 C   0  0  0  0  0  0  0  0  0  0  0  0
   -3.9090    1.0741  -22.0271 C   0  0  0  0  0  0  0  0  0  0  0  0
   -4.9973    0.2675  -21.8176 C   0  0  0  0  0  0  0  0  0  0  0  0
   -5.4425   -0.0033  -20.4979 C   0  0  0  0  0  0  0  0  0  0  0  0
   -5.5194   -0.1847  -22.6547 H   0  0  0  0  0  0  0  0  0  0  0  0
   -3.5778    1.2776  -23.0406 H   0  0  0  0  0  0  0  0  0  0  0  0
   -2.3622    2.2758  -21.1135 H   0  0  0  0  0  0  0  0  0  0  0  0
   -3.0969    1.7965  -18.7952 H   0  0  0  0  0  0  0  0  0  0  0  0
   -4.6757    0.6405  -17.2345 H   0  0  0  0  0  0  0  0  0  0  0  0
   -7.6951   -1.7806  -18.6507 H   0  0  0  0  0  0  0  0  0  0  0  0
   -8.3674   -0.4468  -21.9069 C   0  0  0  0  0  0  0  0  0  0  0  0
   -8.9170   -1.3553  -23.0191 C   0  0  2  0  0  0  0  0  0  0  0  0
  -10.3103   -0.9542  -23.4881 C   0  0  0  0  0  0  0  0  0  0  0  0
  -11.0150   -0.9338  -22.6490 H   0  0  0  0  0  0  0  0  0  0  0  0
  -10.6903   -1.6529  -24.2427 H   0  0  0  0  0  0  0  0  0  0  0  0
  -10.3029    0.0499  -23.9223 H   0  0  0  0  0  0  0  0  0  0  0  0
   -8.2238   -1.3010  -23.8717 H   0  0  0  0  0  0  0  0  0  0  0  0
   -7.9047    0.4732  -22.2857 H   0  0  0  0  0  0  0  0  0  0  0  0
   -9.1609   -0.1492  -21.1993 H   0  0  0  0  0  0  0  0  0  0  0  0
   -8.5529   -3.8761  -23.4808 C   0  0  0  0  0  0  0  0  0  0  0  0
   -7.2888   -4.1501  -24.0161 C   0  0  0  0  0  0  0  0  0  0  0  0
   -7.1618   -5.1601  -24.9494 C   0  0  0  0  0  0  0  0  0  0  0  0
   -5.9501   -5.4004  -25.4779 F   0  0  0  0  0  0  0  0  0  0  0  0
   -8.2326   -5.9459  -25.3625 C   0  0  0  0  0  0  0  0  0  0  0  0
   -9.4841   -5.6436  -24.8556 C   0  0  0  0  0  0  0  0  0  0  0  0
   -9.6544   -4.5956  -23.9531 C   0  0  0  0  0  0  0  0  0  0  0  0
  -11.0209   -4.2351  -23.4897 C   0  0  0  0  0  0  0  0  0  0  0  0
  -12.0210   -4.3637  -24.2125 O   0  0  0  0  0  0  0  0  0  0  0  0
  -10.3466   -6.2326  -25.1434 H   0  0  0  0  0  0  0  0  0  0  0  0
   -8.0654   -6.7683  -26.0550 H   0  0  0  0  0  0  0  0  0  0  0  0
   -6.4056   -3.6149  -23.6796 H   0  0  0  0  0  0  0  0  0  0  0  0
  -10.2361   -2.3555  -20.9200 H   0  0  0  0  0  0  0  0  0  0  0  0
   -9.5624   -3.9631  -20.8174 H   0  0  0  0  0  0  0  0  0  0  0  0
  -12.9504   -4.6436  -21.9886 H   0  0  0  0  0  0  0  0  0  0  0  0
  -12.2227   -4.0745  -20.4856 H   0  0  0  0  0  0  0  0  0  0  0  0
  -12.6158   -1.6867  -21.5217 H   0  0  0  0  0  0  0  0  0  0  0  0
  -14.0817   -2.5619  -21.0587 H   0  0  0  0  0  0  0  0  0  0  0  0
  -13.7187   -1.5673  -23.4857 H   0  0  0  0  0  0  0  0  0  0  0  0
  -12.9515   -3.0149  -23.7399 H   0  0  0  0  0  0  0  0  0  0  0  0
  -15.2989   -3.0959  -24.3853 H   0  0  0  0  0  0  0  0  0  0  0  0
  -15.6579   -2.9403  -22.6610 H   0  0  0  0  0  0  0  0  0  0  0  0
  -14.7586   -4.3490  -23.2368 H   0  0  0  0  0  0  0  0  0  0  0  0
  1  2  1  0
  2  3  1  0
  3  4  1  0
  4  5  1  0
  5  6  1  0
  7  6  1  1
  7  8  1  0
  8  9  2  0
  8 10  1  0
 10 11  1  0
 11 12  2  0
 12 13  1  0
 13 14  2  0
 14 15  1  0
 15 16  2  0
 16 17  1  0
 17 18  2  0
 18 19  1  0
 19 20  2  0
 19 21  1  0
 18 22  1  0
 17 23  1  0
 16 24  1  0
 14 25  1  0
 12 26  1  0
 10 27  1  0
 27 28  1  0
 28 29  1  0
 29 30  1  0
 29 31  1  0
 29 32  1  0
 28 33  1  6
 27 34  1  0
 27 35  1  0
  7 36  1  0
 36 37  2  0
 37 38  1  0
 38 39  1  0
 38 40  2  0
 40 41  1  0
 41 42  2  0
 42 43  1  0
 43 44  2  0
 41 45  1  0
 40 46  1  0
 37 47  1  0
  6 48  1  0
  6 49  1  0
  4 50  1  0
  4 51  1  0
  3 52  1  0
  3 53  1  0
  2 54  1  0
  2 55  1  0
  1 56  1  0
  1 57  1  0
  1 58  1  0
 43  5  1  0
 28  7  1  0
 42 36  1  0
 20 11  1  0
 20 15  1  0
M  CHG  1   2   1
M  END
>  <cnnaffinities>  (27) 
[6.41596]

>  <score>  (27) 
6.41596

>  <index>  (27) 
27

>  <Smiles>  (27) 
C([N+](C(C(N1C([C@@]2(C(=O)N(c3c(nc(c4c(c(c(c(c34)[H])[H])[H])[H])[H])[H])C([C@@]2(C([H])([H])[H])[H])([H])[H])c2c(c(F)c(c(c2C1=O)[H])[H])[H])([H])[H])([H])[H])([H])[H])([H])[H])([H])([H])[H]

>  <h>  (27) 
<NA>

>  <Training>  (27) 
True

>  <Success>  (27) 
True

>  <enamine_searched>  (27) 
False

>  <enamine_id>  (27) 
nan

$$$$

     RDKit          3D

 64 68  0  0  0  0  0  0  0  0999 V2000
   -7.4292    3.2720  -21.7256 C   0  0  0  0  0  0  0  0  0  0  0  0
   -8.3516    2.8632  -22.7662 N   0  0  0  0  0  0  0  0  0  0  0  0
   -7.8303    2.1849  -23.8190 C   0  0  0  0  0  0  0  0  0  0  0  0
   -6.6203    2.0633  -23.9748 O   0  0  0  0  0  0  0  0  0  0  0  0
   -8.8153    1.5841  -24.8103 C   0  0  0  0  0  0  0  0  0  0  0  0
   -9.4887    0.4176  -24.2856 N   0  0  0  0  0  0  0  0  0  0  0  0
   -8.7372   -0.8179  -24.1546 C   0  0  0  0  0  0  0  0  0  0  0  0
   -9.0897   -1.5623  -22.8510 C   0  0  2  0  0  0  0  0  0  0  0  0
   -8.5521   -0.7821  -21.6295 C   0  0  0  0  0  0  0  0  0  0  0  0
   -9.0359    0.2054  -21.1129 O   0  0  0  0  0  0  0  0  0  0  0  0
   -7.3979   -1.3936  -21.2024 N   0  0  0  0  0  0  0  0  0  0  0  0
   -6.5998   -0.8190  -20.1793 C   0  0  0  0  0  0  0  0  0  0  0  0
   -6.9159   -1.0465  -18.8637 C   0  0  0  0  0  0  0  0  0  0  0  0
   -6.2125   -0.5476  -17.8199 N   0  0  0  0  0  0  0  0  0  0  0  0
   -5.1773    0.2069  -18.0866 C   0  0  0  0  0  0  0  0  0  0  0  0
   -4.7397    0.5265  -19.4019 C   0  0  0  0  0  0  0  0  0  0  0  0
   -3.6167    1.3610  -19.6451 C   0  0  0  0  0  0  0  0  0  0  0  0
   -3.2295    1.6571  -20.9229 C   0  0  0  0  0  0  0  0  0  0  0  0
   -3.9510    1.1341  -22.0217 C   0  0  0  0  0  0  0  0  0  0  0  0
   -5.0420    0.3233  -21.8131 C   0  0  0  0  0  0  0  0  0  0  0  0
   -5.4666   -0.0044  -20.4958 C   0  0  0  0  0  0  0  0  0  0  0  0
   -5.5980   -0.0478  -22.6701 H   0  0  0  0  0  0  0  0  0  0  0  0
   -3.6571    1.3793  -23.0379 H   0  0  0  0  0  0  0  0  0  0  0  0
   -2.3750    2.3069  -21.1007 H   0  0  0  0  0  0  0  0  0  0  0  0
   -3.0826    1.7615  -18.7877 H   0  0  0  0  0  0  0  0  0  0  0  0
   -4.6159    0.6035  -17.2393 H   0  0  0  0  0  0  0  0  0  0  0  0
   -7.7790   -1.6624  -18.6122 H   0  0  0  0  0  0  0  0  0  0  0  0
   -7.0418   -2.5895  -21.9344 C   0  0  0  0  0  0  0  0  0  0  0  0
   -8.3191   -2.9187  -22.7357 C   0  0  2  0  0  0  0  0  0  0  0  0
   -8.0433   -3.7006  -24.0360 C   0  0  0  0  0  0  0  0  0  0  0  0
   -7.4523   -5.3523  -23.6629 S   0  0  0  0  0  0  0  0  0  0  0  0
   -6.0973   -5.2719  -23.1377 O   0  0  0  0  0  0  0  0  0  0  0  0
   -8.4948   -6.0559  -22.9227 O   0  0  0  0  0  0  0  0  0  0  0  0
   -7.2681   -6.0149  -25.1816 N   0  0  0  0  0  0  0  0  0  0  0  0
   -8.4648   -6.3884  -25.9260 C   0  0  0  0  0  0  0  0  0  0  0  0
   -8.9947   -5.4755  -26.1901 H   0  0  0  0  0  0  0  0  0  0  0  0
   -9.1542   -7.0303  -25.3677 H   0  0  0  0  0  0  0  0  0  0  0  0
   -8.1605   -6.8907  -26.8508 H   0  0  0  0  0  0  0  0  0  0  0  0
   -6.5852   -6.7568  -25.0932 H   0  0  0  0  0  0  0  0  0  0  0  0
   -8.9592   -3.8055  -24.6330 H   0  0  0  0  0  0  0  0  0  0  0  0
   -7.2689   -3.2280  -24.6510 H   0  0  0  0  0  0  0  0  0  0  0  0
   -8.9355   -3.5768  -22.1234 H   0  0  0  0  0  0  0  0  0  0  0  0
   -6.1877   -2.4016  -22.5999 H   0  0  0  0  0  0  0  0  0  0  0  0
   -6.7596   -3.3937  -21.2488 H   0  0  0  0  0  0  0  0  0  0  0  0
  -10.6026   -1.6413  -22.7611 C   0  0  0  0  0  0  0  0  0  0  0  0
  -11.2120   -2.5634  -21.9061 C   0  0  0  0  0  0  0  0  0  0  0  0
  -12.5907   -2.5921  -21.7910 C   0  0  0  0  0  0  0  0  0  0  0  0
  -13.3208   -3.7335  -20.6948 Cl  0  0  0  0  0  0  0  0  0  0  0  0
  -13.4101   -1.7206  -22.5113 C   0  0  0  0  0  0  0  0  0  0  0  0
  -12.8166   -0.7722  -23.3191 C   0  0  0  0  0  0  0  0  0  0  0  0
  -11.4280   -0.7132  -23.4146 C   0  0  0  0  0  0  0  0  0  0  0  0
  -10.8510    0.4341  -24.1777 C   0  0  0  0  0  0  0  0  0  0  0  0
  -11.5494    1.3313  -24.6333 O   0  0  0  0  0  0  0  0  0  0  0  0
  -13.3945   -0.0400  -23.8758 H   0  0  0  0  0  0  0  0  0  0  0  0
  -14.4864   -1.7881  -22.4055 H   0  0  0  0  0  0  0  0  0  0  0  0
  -10.6155   -3.2517  -21.3160 H   0  0  0  0  0  0  0  0  0  0  0  0
   -7.6748   -0.5606  -24.1754 H   0  0  0  0  0  0  0  0  0  0  0  0
   -8.9623   -1.4752  -25.0040 H   0  0  0  0  0  0  0  0  0  0  0  0
   -9.6080    2.2896  -25.0679 H   0  0  0  0  0  0  0  0  0  0  0  0
   -8.2213    1.3234  -25.6900 H   0  0  0  0  0  0  0  0  0  0  0  0
   -9.3181    2.7368  -22.5080 H   0  0  0  0  0  0  0  0  0  0  0  0
   -6.7889    2.4362  -21.4322 H   0  0  0  0  0  0  0  0  0  0  0  0
   -6.7810    4.0720  -22.0851 H   0  0  0  0  0  0  0  0  0  0  0  0
   -7.9837    3.6102  -20.8580 H   0  0  0  0  0  0  0  0  0  0  0  0
  1  2  1  0
  2  3  1  0
  3  4  2  0
  3  5  1  0
  5  6  1  0
  6  7  1  0
  8  7  1  6
  8  9  1  0
  9 10  2  0
  9 11  1  0
 11 12  1  0
 12 13  2  0
 13 14  1  0
 14 15  2  0
 15 16  1  0
 16 17  2  0
 17 18  1  0
 18 19  2  0
 19 20  1  0
 20 21  2  0
 20 22  1  0
 19 23  1  0
 18 24  1  0
 17 25  1  0
 15 26  1  0
 13 27  1  0
 11 28  1  0
 28 29  1  0
 29 30  1  0
 30 31  1  0
 31 32  2  0
 31 33  2  0
 31 34  1  0
 34 35  1  0
 35 36  1  0
 35 37  1  0
 35 38  1  0
 34 39  1  0
 30 40  1  0
 30 41  1  0
 29 42  1  1
 28 43  1  0
 28 44  1  0
  8 45  1  0
 45 46  2  0
 46 47  1  0
 47 48  1  0
 47 49  2  0
 49 50  1  0
 50 51  2  0
 51 52  1  0
 52 53  2  0
 50 54  1  0
 49 55  1  0
 46 56  1  0
  7 57  1  0
  7 58  1  0
  5 59  1  0
  5 60  1  0
  2 61  1  0
  1 62  1  0
  1 63  1  0
  1 64  1  0
 52  6  1  0
 29  8  1  0
 51 45  1  0
 21 12  1  0
 21 16  1  0
M  END
>  <cnnaffinities>  (28) 
[6.56657, 6.79743]

>  <score>  (28) 
6.56657

>  <index>  (28) 
28

>  <Smiles>  (28) 
C(N(C(=O)C(N1C([C@@]2(C(=O)N(c3c(nc(c4c(c(c(c(c34)[H])[H])[H])[H])[H])[H])C([C@@]2(C(S(=O)(=O)N(C([H])([H])[H])[H])([H])[H])[H])([H])[H])c2c(c(Cl)c(c(c2C1=O)[H])[H])[H])([H])[H])([H])[H])[H])([H])([H])[H]

>  <h>  (28) 
<NA>

>  <Training>  (28) 
True

>  <Success>  (28) 
True

>  <enamine_searched>  (28) 
False

>  <enamine_id>  (28) 
nan

$$$$

     RDKit          3D

 55 60  0  0  0  0  0  0  0  0999 V2000
  -10.4362   -1.0321  -23.3577 C   0  0  0  0  0  0  0  0  0  0  0  0
   -8.9947   -1.3914  -22.9988 C   0  0  1  0  0  0  0  0  0  0  0  0
   -8.3968   -0.4776  -21.9125 C   0  0  0  0  0  0  0  0  0  0  0  0
   -7.3992   -1.3166  -21.2745 N   0  0  0  0  0  0  0  0  0  0  0  0
   -6.5808   -0.8446  -20.2182 C   0  0  0  0  0  0  0  0  0  0  0  0
   -6.8852   -1.1175  -18.9086 C   0  0  0  0  0  0  0  0  0  0  0  0
   -6.2139   -0.5888  -17.8546 N   0  0  0  0  0  0  0  0  0  0  0  0
   -5.2041    0.2064  -18.1037 C   0  0  0  0  0  0  0  0  0  0  0  0
   -4.7504    0.5335  -19.4152 C   0  0  0  0  0  0  0  0  0  0  0  0
   -3.6265    1.3683  -19.6525 C   0  0  0  0  0  0  0  0  0  0  0  0
   -3.2197    1.6297  -20.9331 C   0  0  0  0  0  0  0  0  0  0  0  0
   -3.9119    1.0733  -22.0325 C   0  0  0  0  0  0  0  0  0  0  0  0
   -5.0045    0.2669  -21.8285 C   0  0  0  0  0  0  0  0  0  0  0  0
   -5.4542   -0.0118  -20.5109 C   0  0  0  0  0  0  0  0  0  0  0  0
   -5.5310   -0.1787  -22.6666 H   0  0  0  0  0  0  0  0  0  0  0  0
   -3.5766    1.2785  -23.0456 H   0  0  0  0  0  0  0  0  0  0  0  0
   -2.3563    2.2649  -21.1133 H   0  0  0  0  0  0  0  0  0  0  0  0
   -3.0990    1.7795  -18.7956 H   0  0  0  0  0  0  0  0  0  0  0  0
   -4.6823    0.6316  -17.2451 H   0  0  0  0  0  0  0  0  0  0  0  0
   -7.7120   -1.7812  -18.6588 H   0  0  0  0  0  0  0  0  0  0  0  0
   -7.5815   -2.6619  -21.5033 C   0  0  0  0  0  0  0  0  0  0  0  0
   -6.8766   -3.5274  -21.0230 O   0  0  0  0  0  0  0  0  0  0  0  0
   -8.7782   -2.8494  -22.4525 C   0  0  1  0  0  0  0  0  0  0  0  0
   -9.9878   -3.3008  -21.5942 C   0  0  0  0  0  0  0  0  0  0  0  0
  -11.1152   -3.7931  -22.3839 N   0  0  0  0  0  0  0  0  0  0  0  0
  -12.4887   -3.7630  -21.8749 C   0  0  0  0  0  0  0  0  0  0  0  0
  -13.3527   -2.6523  -22.4144 C   0  0  0  0  0  0  0  0  0  0  0  0
  -14.0210   -2.5482  -23.6467 C   0  0  0  0  0  0  0  0  0  0  0  0
  -14.7148   -1.4125  -23.6713 N   0  0  0  0  0  0  0  0  0  0  0  0
  -14.4300   -0.8731  -22.5025 N   0  0  0  0  0  0  0  0  0  0  0  0
  -13.6406   -1.5665  -21.7021 N   0  0  0  0  0  0  0  0  0  0  0  0
  -14.8928   -0.0438  -22.1515 H   0  0  0  0  0  0  0  0  0  0  0  0
  -14.0872   -3.2533  -24.4697 H   0  0  0  0  0  0  0  0  0  0  0  0
  -12.4902   -3.7103  -20.7870 H   0  0  0  0  0  0  0  0  0  0  0  0
  -12.9576   -4.6975  -22.1928 H   0  0  0  0  0  0  0  0  0  0  0  0
  -10.9365   -4.5331  -23.5201 C   0  0  0  0  0  0  0  0  0  0  0  0
  -11.8873   -5.0337  -24.1156 O   0  0  0  0  0  0  0  0  0  0  0  0
   -9.5325   -4.7070  -23.9843 C   0  0  0  0  0  0  0  0  0  0  0  0
   -9.2957   -5.7057  -24.9231 C   0  0  0  0  0  0  0  0  0  0  0  0
   -8.0302   -5.9116  -25.4323 C   0  0  0  0  0  0  0  0  0  0  0  0
   -7.0096   -5.0762  -24.9938 C   0  0  0  0  0  0  0  0  0  0  0  0
   -5.7787   -5.2476  -25.5045 F   0  0  0  0  0  0  0  0  0  0  0  0
   -7.2083   -4.0884  -24.0469 C   0  0  0  0  0  0  0  0  0  0  0  0
   -8.4926   -3.9007  -23.5085 C   0  0  0  0  0  0  0  0  0  0  0  0
   -6.3480   -3.5184  -23.7069 H   0  0  0  0  0  0  0  0  0  0  0  0
   -7.8197   -6.7059  -26.1401 H   0  0  0  0  0  0  0  0  0  0  0  0
  -10.1377   -6.3158  -25.2314 H   0  0  0  0  0  0  0  0  0  0  0  0
  -10.3074   -2.4513  -20.9812 H   0  0  0  0  0  0  0  0  0  0  0  0
   -9.6497   -4.0686  -20.8973 H   0  0  0  0  0  0  0  0  0  0  0  0
   -9.1578   -0.1589  -21.1827 H   0  0  0  0  0  0  0  0  0  0  0  0
   -7.9442    0.4353  -22.3156 H   0  0  0  0  0  0  0  0  0  0  0  0
   -8.3643   -1.3091  -23.8934 H   0  0  0  0  0  0  0  0  0  0  0  0
  -10.5002   -0.0649  -23.8612 H   0  0  0  0  0  0  0  0  0  0  0  0
  -10.8738   -1.7910  -24.0134 H   0  0  0  0  0  0  0  0  0  0  0  0
  -11.0672   -0.9691  -22.4654 H   0  0  0  0  0  0  0  0  0  0  0  0
  1  2  1  0
  2  3  1  0
  3  4  1  0
  4  5  1  0
  5  6  2  0
  6  7  1  0
  7  8  2  0
  8  9  1  0
  9 10  2  0
 10 11  1  0
 11 12  2  0
 12 13  1  0
 13 14  2  0
 13 15  1  0
 12 16  1  0
 11 17  1  0
 10 18  1  0
  8 19  1  0
  6 20  1  0
  4 21  1  0
 21 22  2  0
 21 23  1  0
 23 24  1  1
 24 25  1  0
 25 26  1  0
 26 27  1  0
 27 28  1  0
 28 29  2  0
 29 30  1  0
 30 31  1  0
 30 32  1  0
 28 33  1  0
 26 34  1  0
 26 35  1  0
 25 36  1  0
 36 37  2  0
 36 38  1  0
 38 39  2  0
 39 40  1  0
 40 41  2  0
 41 42  1  0
 41 43  1  0
 43 44  2  0
 43 45  1  0
 40 46  1  0
 39 47  1  0
 24 48  1  0
 24 49  1  0
  3 50  1  0
  3 51  1  0
  2 52  1  6
  1 53  1  0
  1 54  1  0
  1 55  1  0
 23  2  1  0
 31 27  2  0
 44 38  1  0
 14  5  1  0
 44 23  1  0
 14  9  1  0
M  END
>  <cnnaffinities>  (29) 
[6.97406]

>  <score>  (29) 
6.97406

>  <index>  (29) 
29

>  <Smiles>  (29) 
C([C@]1(C(N(c2c(nc(c3c(c(c(c(c23)[H])[H])[H])[H])[H])[H])C(=O)[C@]21C(N(C(c1c(nn(n1)[H])[H])([H])[H])C(=O)c1c(c(c(F)c(c21)[H])[H])[H])([H])[H])([H])[H])[H])([H])([H])[H]

>  <h>  (29) 
<NA>

>  <Training>  (29) 
True

>  <Success>  (29) 
True

>  <enamine_searched>  (29) 
False

>  <enamine_id>  (29) 
nan

$$$$

     RDKit          3D

 58 63  0  0  0  0  0  0  0  0999 V2000
  -10.4214   -0.9843  -23.3961 C   0  0  0  0  0  0  0  0  0  0  0  0
   -8.9922   -1.3636  -23.0084 C   0  0  1  0  0  0  0  0  0  0  0  0
   -8.4013   -0.4646  -21.9065 C   0  0  0  0  0  0  0  0  0  0  0  0
   -7.4154   -1.3165  -21.2677 N   0  0  0  0  0  0  0  0  0  0  0  0
   -6.5864   -0.8556  -20.2162 C   0  0  0  0  0  0  0  0  0  0  0  0
   -6.8865   -1.1269  -18.9061 C   0  0  0  0  0  0  0  0  0  0  0  0
   -6.2160   -0.5943  -17.8540 N   0  0  0  0  0  0  0  0  0  0  0  0
   -5.2086    0.2035  -18.1051 C   0  0  0  0  0  0  0  0  0  0  0  0
   -4.7571    0.5255  -19.4175 C   0  0  0  0  0  0  0  0  0  0  0  0
   -3.6349    1.3621  -19.6532 C   0  0  0  0  0  0  0  0  0  0  0  0
   -3.2252    1.6242  -20.9331 C   0  0  0  0  0  0  0  0  0  0  0  0
   -3.9174    1.0655  -22.0316 C   0  0  0  0  0  0  0  0  0  0  0  0
   -5.0089    0.2586  -21.8278 C   0  0  0  0  0  0  0  0  0  0  0  0
   -5.4611   -0.0223  -20.5120 C   0  0  0  0  0  0  0  0  0  0  0  0
   -5.5311   -0.1861  -22.6687 H   0  0  0  0  0  0  0  0  0  0  0  0
   -3.5821    1.2736  -23.0441 H   0  0  0  0  0  0  0  0  0  0  0  0
   -2.3653    2.2632  -21.1127 H   0  0  0  0  0  0  0  0  0  0  0  0
   -3.1105    1.7780  -18.7970 H   0  0  0  0  0  0  0  0  0  0  0  0
   -4.6879    0.6322  -17.2471 H   0  0  0  0  0  0  0  0  0  0  0  0
   -7.7117   -1.7904  -18.6524 H   0  0  0  0  0  0  0  0  0  0  0  0
   -7.6167   -2.6580  -21.4954 C   0  0  0  0  0  0  0  0  0  0  0  0
   -6.9272   -3.5364  -21.0172 O   0  0  0  0  0  0  0  0  0  0  0  0
   -8.8062   -2.8265  -22.4623 C   0  0  1  0  0  0  0  0  0  0  0  0
  -10.0453   -3.2754  -21.6396 C   0  0  0  0  0  0  0  0  0  0  0  0
  -11.1588   -3.7716  -22.4621 N   0  0  0  0  0  0  0  0  0  0  0  0
  -12.5507   -3.7480  -21.9696 C   0  0  0  0  0  0  0  0  0  0  0  0
  -13.4597   -2.7458  -22.6483 C   0  0  0  0  0  0  0  0  0  0  0  0
  -13.9236   -1.6047  -22.0623 C   0  0  0  0  0  0  0  0  0  0  0  0
  -14.7216   -0.6683  -22.8216 C   0  0  0  0  0  0  0  0  0  0  0  0
  -15.2394    0.3646  -22.4438 O   0  0  0  0  0  0  0  0  0  0  0  0
  -14.8850   -1.0728  -24.1535 N   0  0  0  0  0  0  0  0  0  0  0  0
  -14.5257   -2.2959  -24.6034 C   0  0  0  0  0  0  0  0  0  0  0  0
  -13.8541   -3.1421  -23.9087 N   0  0  0  0  0  0  0  0  0  0  0  0
  -14.8015   -2.5360  -25.6230 H   0  0  0  0  0  0  0  0  0  0  0  0
  -15.4875   -0.4758  -24.6964 H   0  0  0  0  0  0  0  0  0  0  0  0
  -13.7307   -1.3709  -21.0258 H   0  0  0  0  0  0  0  0  0  0  0  0
  -12.9849   -4.7127  -22.2443 H   0  0  0  0  0  0  0  0  0  0  0  0
  -12.5590   -3.6335  -20.8821 H   0  0  0  0  0  0  0  0  0  0  0  0
  -10.9107   -4.6384  -23.4961 C   0  0  0  0  0  0  0  0  0  0  0  0
  -11.7906   -5.3082  -24.0188 O   0  0  0  0  0  0  0  0  0  0  0  0
   -9.5036   -4.7314  -23.9767 C   0  0  0  0  0  0  0  0  0  0  0  0
   -9.2395   -5.7218  -24.9207 C   0  0  0  0  0  0  0  0  0  0  0  0
   -7.9751   -5.8880  -25.4403 C   0  0  0  0  0  0  0  0  0  0  0  0
   -6.9836   -5.0310  -24.9818 C   0  0  0  0  0  0  0  0  0  0  0  0
   -5.7468   -5.1824  -25.4785 F   0  0  0  0  0  0  0  0  0  0  0  0
   -7.2087   -4.0512  -24.0332 C   0  0  0  0  0  0  0  0  0  0  0  0
   -8.4982   -3.8812  -23.5086 C   0  0  0  0  0  0  0  0  0  0  0  0
   -6.3608   -3.4720  -23.6835 H   0  0  0  0  0  0  0  0  0  0  0  0
   -7.7434   -6.6707  -26.1554 H   0  0  0  0  0  0  0  0  0  0  0  0
  -10.0622   -6.3575  -25.2240 H   0  0  0  0  0  0  0  0  0  0  0  0
   -9.7228   -4.0447  -20.9315 H   0  0  0  0  0  0  0  0  0  0  0  0
  -10.3922   -2.4247  -21.0456 H   0  0  0  0  0  0  0  0  0  0  0  0
   -9.1661   -0.1460  -21.1794 H   0  0  0  0  0  0  0  0  0  0  0  0
   -7.9282    0.4426  -22.2961 H   0  0  0  0  0  0  0  0  0  0  0  0
   -8.3444   -1.2936  -23.8913 H   0  0  0  0  0  0  0  0  0  0  0  0
  -11.0743   -0.9638  -22.5159 H   0  0  0  0  0  0  0  0  0  0  0  0
  -10.8393   -1.7164  -24.0937 H   0  0  0  0  0  0  0  0  0  0  0  0
  -10.4616    0.0077  -23.8545 H   0  0  0  0  0  0  0  0  0  0  0  0
  1  2  1  0
  2  3  1  0
  3  4  1  0
  4  5  1  0
  5  6  2  0
  6  7  1  0
  7  8  2  0
  8  9  1  0
  9 10  2  0
 10 11  1  0
 11 12  2  0
 12 13  1  0
 13 14  2  0
 13 15  1  0
 12 16  1  0
 11 17  1  0
 10 18  1  0
  8 19  1  0
  6 20  1  0
  4 21  1  0
 21 22  2  0
 21 23  1  0
 23 24  1  1
 24 25  1  0
 25 26  1  0
 26 27  1  0
 27 28  2  0
 28 29  1  0
 29 30  2  0
 29 31  1  0
 31 32  1  0
 32 33  2  0
 32 34  1  0
 31 35  1  0
 28 36  1  0
 26 37  1  0
 26 38  1  0
 25 39  1  0
 39 40  2  0
 39 41  1  0
 41 42  2  0
 42 43  1  0
 43 44  2  0
 44 45  1  0
 44 46  1  0
 46 47  2  0
 46 48  1  0
 43 49  1  0
 42 50  1  0
 24 51  1  0
 24 52  1  0
  3 53  1  0
  3 54  1  0
  2 55  1  6
  1 56  1  0
  1 57  1  0
  1 58  1  0
 23  2  1  0
 33 27  1  0
 47 41  1  0
 14  5  1  0
 47 23  1  0
 14  9  1  0
M  END
>  <cnnaffinities>  (30) 
[6.90117]

>  <score>  (30) 
6.90117

>  <index>  (30) 
30

>  <Smiles>  (30) 
C([C@]1(C(N(c2c(nc(c3c(c(c(c(c23)[H])[H])[H])[H])[H])[H])C(=O)[C@]21C(N(C(c1c(c(=O)n(c(n1)[H])[H])[H])([H])[H])C(=O)c1c(c(c(F)c(c21)[H])[H])[H])([H])[H])([H])[H])[H])([H])([H])[H]

>  <h>  (30) 
<NA>

>  <Training>  (30) 
True

>  <Success>  (30) 
True

>  <enamine_searched>  (30) 
False

>  <enamine_id>  (30) 
nan

$$$$

     RDKit          3D

 66 71  0  0  0  0  0  0  0  0999 V2000
   -7.4690    3.2937  -21.6963 C   0  0  0  0  0  0  0  0  0  0  0  0
   -8.3550    2.8489  -22.7529 N   0  0  0  0  0  0  0  0  0  0  0  0
   -7.7999    2.2016  -23.7965 C   0  0  0  0  0  0  0  0  0  0  0  0
   -6.5860    2.1235  -23.9390 O   0  0  0  0  0  0  0  0  0  0  0  0
   -8.7582    1.5803  -24.8202 C   0  0  0  0  0  0  0  0  0  0  0  0
   -9.4613    0.4096  -24.3287 N   0  0  0  0  0  0  0  0  0  0  0  0
   -8.7247   -0.8354  -24.1922 C   0  0  0  0  0  0  0  0  0  0  0  0
   -9.0837   -1.5716  -22.8752 C   0  0  2  0  0  0  0  0  0  0  0  0
   -8.5443   -0.7708  -21.6553 C   0  0  0  0  0  0  0  0  0  0  0  0
   -9.0270    0.2269  -21.1592 O   0  0  0  0  0  0  0  0  0  0  0  0
   -7.3982   -1.3822  -21.2041 N   0  0  0  0  0  0  0  0  0  0  0  0
   -6.6051   -0.8075  -20.1771 C   0  0  0  0  0  0  0  0  0  0  0  0
   -6.9072   -1.0421  -18.8601 C   0  0  0  0  0  0  0  0  0  0  0  0
   -6.1988   -0.5474  -17.8178 N   0  0  0  0  0  0  0  0  0  0  0  0
   -5.1651    0.2094  -18.0817 C   0  0  0  0  0  0  0  0  0  0  0  0
   -4.7280    0.5320  -19.3974 C   0  0  0  0  0  0  0  0  0  0  0  0
   -3.6020    1.3668  -19.6422 C   0  0  0  0  0  0  0  0  0  0  0  0
   -3.2182    1.6609  -20.9210 C   0  0  0  0  0  0  0  0  0  0  0  0
   -3.9430    1.1335  -22.0133 C   0  0  0  0  0  0  0  0  0  0  0  0
   -5.0344    0.3248  -21.8016 C   0  0  0  0  0  0  0  0  0  0  0  0
   -5.4638    0.0025  -20.4862 C   0  0  0  0  0  0  0  0  0  0  0  0
   -5.5948   -0.0542  -22.6515 H   0  0  0  0  0  0  0  0  0  0  0  0
   -3.6557    1.3747  -23.0306 H   0  0  0  0  0  0  0  0  0  0  0  0
   -2.3675    2.3131  -21.1012 H   0  0  0  0  0  0  0  0  0  0  0  0
   -3.0708    1.7726  -18.7847 H   0  0  0  0  0  0  0  0  0  0  0  0
   -4.6171    0.6121  -17.2292 H   0  0  0  0  0  0  0  0  0  0  0  0
   -7.7563   -1.6684  -18.5982 H   0  0  0  0  0  0  0  0  0  0  0  0
   -7.0299   -2.5753  -21.9343 C   0  0  0  0  0  0  0  0  0  0  0  0
   -8.3052   -2.9225  -22.7296 C   0  0  2  0  0  0  0  0  0  0  0  0
   -7.9947   -3.7282  -24.0182 C   0  0  0  0  0  0  0  0  0  0  0  0
   -7.4779   -5.0646  -23.7795 N   0  0  0  0  0  0  0  0  0  0  0  0
   -6.1883   -5.3892  -23.5147 C   0  0  0  0  0  0  0  0  0  0  0  0
   -5.0981   -4.6011  -23.9355 C   0  0  0  0  0  0  0  0  0  0  0  0
   -3.8413   -5.0617  -23.5908 C   0  0  0  0  0  0  0  0  0  0  0  0
   -3.6404   -6.1827  -22.8822 N   0  0  0  0  0  0  0  0  0  0  0  0
   -4.7423   -6.8529  -22.5603 C   0  0  0  0  0  0  0  0  0  0  0  0
   -6.0017   -6.5417  -22.8445 N   0  0  0  0  0  0  0  0  0  0  0  0
   -4.5854   -7.7765  -21.9885 H   0  0  0  0  0  0  0  0  0  0  0  0
   -2.9409   -4.5114  -23.8921 H   0  0  0  0  0  0  0  0  0  0  0  0
   -5.2448   -3.6909  -24.5170 H   0  0  0  0  0  0  0  0  0  0  0  0
   -8.1232   -5.7906  -23.5087 H   0  0  0  0  0  0  0  0  0  0  0  0
   -7.2735   -3.1766  -24.6387 H   0  0  0  0  0  0  0  0  0  0  0  0
   -8.9097   -3.8577  -24.6059 H   0  0  0  0  0  0  0  0  0  0  0  0
   -8.9319   -3.5615  -22.1023 H   0  0  0  0  0  0  0  0  0  0  0  0
   -6.1755   -2.3809  -22.6031 H   0  0  0  0  0  0  0  0  0  0  0  0
   -6.7273   -3.3738  -21.2492 H   0  0  0  0  0  0  0  0  0  0  0  0
  -10.6003   -1.6473  -22.7884 C   0  0  0  0  0  0  0  0  0  0  0  0
  -11.2175   -2.5586  -21.9233 C   0  0  0  0  0  0  0  0  0  0  0  0
  -12.5954   -2.5967  -21.8207 C   0  0  0  0  0  0  0  0  0  0  0  0
  -13.3469   -3.7327  -20.7397 Cl  0  0  0  0  0  0  0  0  0  0  0  0
  -13.4064   -1.7314  -22.5535 C   0  0  0  0  0  0  0  0  0  0  0  0
  -12.8054   -0.7843  -23.3568 C   0  0  0  0  0  0  0  0  0  0  0  0
  -11.4154   -0.7173  -23.4531 C   0  0  0  0  0  0  0  0  0  0  0  0
  -10.8253    0.4341  -24.2162 C   0  0  0  0  0  0  0  0  0  0  0  0
  -11.5162    1.3354  -24.6653 O   0  0  0  0  0  0  0  0  0  0  0  0
  -13.3855   -0.0544  -23.9119 H   0  0  0  0  0  0  0  0  0  0  0  0
  -14.4845   -1.7958  -22.4633 H   0  0  0  0  0  0  0  0  0  0  0  0
  -10.6351   -3.2288  -21.3026 H   0  0  0  0  0  0  0  0  0  0  0  0
   -7.6622   -0.5758  -24.1947 H   0  0  0  0  0  0  0  0  0  0  0  0
   -8.9352   -1.5002  -25.0463 H   0  0  0  0  0  0  0  0  0  0  0  0
   -9.5395    2.2805  -25.1293 H   0  0  0  0  0  0  0  0  0  0  0  0
   -8.1271    1.3277  -25.6801 H   0  0  0  0  0  0  0  0  0  0  0  0
   -9.3484    2.7710  -22.5846 H   0  0  0  0  0  0  0  0  0  0  0  0
   -6.8464    2.4602  -21.3445 H   0  0  0  0  0  0  0  0  0  0  0  0
   -8.0756    3.6743  -20.8886 H   0  0  0  0  0  0  0  0  0  0  0  0
   -6.8100    4.0913  -22.0533 H   0  0  0  0  0  0  0  0  0  0  0  0
  1  2  1  0
  2  3  1  0
  3  4  2  0
  3  5  1  0
  5  6  1  0
  6  7  1  0
  8  7  1  6
  8  9  1  0
  9 10  2  0
  9 11  1  0
 11 12  1  0
 12 13  2  0
 13 14  1  0
 14 15  2  0
 15 16  1  0
 16 17  2  0
 17 18  1  0
 18 19  2  0
 19 20  1  0
 20 21  2  0
 20 22  1  0
 19 23  1  0
 18 24  1  0
 17 25  1  0
 15 26  1  0
 13 27  1  0
 11 28  1  0
 28 29  1  0
 29 30  1  0
 30 31  1  0
 31 32  1  0
 32 33  2  0
 33 34  1  0
 34 35  2  0
 35 36  1  0
 36 37  2  0
 36 38  1  0
 34 39  1  0
 33 40  1  0
 31 41  1  0
 30 42  1  0
 30 43  1  0
 29 44  1  1
 28 45  1  0
 28 46  1  0
  8 47  1  0
 47 48  2  0
 48 49  1  0
 49 50  1  0
 49 51  2  0
 51 52  1  0
 52 53  2  0
 53 54  1  0
 54 55  2  0
 52 56  1  0
 51 57  1  0
 48 58  1  0
  7 59  1  0
  7 60  1  0
  5 61  1  0
  5 62  1  0
  2 63  1  0
  1 64  1  0
  1 65  1  0
  1 66  1  0
 54  6  1  0
 29  8  1  0
 37 32  1  0
 53 47  1  0
 21 12  1  0
 21 16  1  0
M  END
>  <cnnaffinities>  (31) 
[7.09377, 6.97931]

>  <score>  (31) 
7.09377

>  <index>  (31) 
31

>  <Smiles>  (31) 
C(N(C(=O)C(N1C([C@@]2(C(=O)N(c3c(nc(c4c(c(c(c(c34)[H])[H])[H])[H])[H])[H])C([C@@]2(C(N(c2c(c(nc(n2)[H])[H])[H])[H])([H])[H])[H])([H])[H])c2c(c(Cl)c(c(c2C1=O)[H])[H])[H])([H])[H])([H])[H])[H])([H])([H])[H]

>  <h>  (31) 
<NA>

>  <Training>  (31) 
True

>  <Success>  (31) 
True

>  <enamine_searched>  (31) 
False

>  <enamine_id>  (31) 
nan

$$$$

     RDKit          3D

 57 62  0  0  0  0  0  0  0  0999 V2000
   -8.1543   -4.0551  -23.7592 C   0  0  0  0  0  0  0  0  0  0  0  0
   -8.3957   -3.1950  -22.5189 C   0  0  1  0  0  0  0  0  0  0  0  0
   -7.0983   -2.4948  -22.0739 C   0  0  0  0  0  0  0  0  0  0  0  0
   -7.5409   -1.3298  -21.3349 N   0  0  0  0  0  0  0  0  0  0  0  0
   -6.7657   -0.7716  -20.2779 C   0  0  0  0  0  0  0  0  0  0  0  0
   -7.0966   -1.0045  -18.9630 C   0  0  0  0  0  0  0  0  0  0  0  0
   -6.3668   -0.5696  -17.9049 N   0  0  0  0  0  0  0  0  0  0  0  0
   -5.2891    0.1357  -18.1356 C   0  0  0  0  0  0  0  0  0  0  0  0
   -4.8283    0.4598  -19.4430 C   0  0  0  0  0  0  0  0  0  0  0  0
   -3.6828    1.2750  -19.6592 C   0  0  0  0  0  0  0  0  0  0  0  0
   -3.2491    1.5372  -20.9301 C   0  0  0  0  0  0  0  0  0  0  0  0
   -3.9168    0.9672  -22.0371 C   0  0  0  0  0  0  0  0  0  0  0  0
   -5.0276    0.1785  -21.8501 C   0  0  0  0  0  0  0  0  0  0  0  0
   -5.5498   -0.0527  -20.5501 C   0  0  0  0  0  0  0  0  0  0  0  0
   -5.5221   -0.2664  -22.7092 H   0  0  0  0  0  0  0  0  0  0  0  0
   -3.5551    1.1454  -23.0451 H   0  0  0  0  0  0  0  0  0  0  0  0
   -2.3934    2.1853  -21.0998 H   0  0  0  0  0  0  0  0  0  0  0  0
   -3.1636    1.6855  -18.7964 H   0  0  0  0  0  0  0  0  0  0  0  0
   -4.7073    0.4749  -17.2720 H   0  0  0  0  0  0  0  0  0  0  0  0
   -7.9804   -1.5850  -18.7059 H   0  0  0  0  0  0  0  0  0  0  0  0
   -8.8742   -1.0384  -21.5612 C   0  0  0  0  0  0  0  0  0  0  0  0
   -9.4848   -0.1631  -20.9907 O   0  0  0  0  0  0  0  0  0  0  0  0
   -9.4269   -2.0246  -22.6537 C   0  0  1  0  0  0  0  0  0  0  0  0
   -9.3050   -1.3962  -24.0671 C   0  0  0  0  0  0  0  0  0  0  0  0
  -10.3249   -0.4068  -24.3767 N   0  0  0  0  0  0  0  0  0  0  0  0
   -9.8815    0.8090  -25.0458 C   0  0  0  0  0  0  0  0  0  0  0  0
   -9.0865    1.6185  -24.0711 C   0  0  0  0  0  0  0  0  0  0  0  0
   -7.7764    1.7564  -24.0363 N   0  0  0  0  0  0  0  0  0  0  0  0
   -7.5008    2.3820  -22.8726 N   0  0  0  0  0  0  0  0  0  0  0  0
   -8.5812    2.6141  -22.2150 N   0  0  0  0  0  0  0  0  0  0  0  0
   -9.5993    2.1535  -22.9540 N   0  0  0  0  0  0  0  0  0  0  0  0
  -10.9567    2.3049  -22.4510 C   0  0  0  0  0  0  0  0  0  0  0  0
  -11.0913    1.6267  -21.6057 H   0  0  0  0  0  0  0  0  0  0  0  0
  -11.6743    2.0709  -23.2438 H   0  0  0  0  0  0  0  0  0  0  0  0
  -11.0905    3.3421  -22.1260 H   0  0  0  0  0  0  0  0  0  0  0  0
  -10.7662    1.3255  -25.4274 H   0  0  0  0  0  0  0  0  0  0  0  0
   -9.2296    0.5644  -25.8885 H   0  0  0  0  0  0  0  0  0  0  0  0
  -11.6384   -0.5437  -24.0304 C   0  0  0  0  0  0  0  0  0  0  0  0
  -12.5248    0.1599  -24.5033 O   0  0  0  0  0  0  0  0  0  0  0  0
  -11.9236   -1.5857  -22.9991 C   0  0  0  0  0  0  0  0  0  0  0  0
  -13.2549   -1.7113  -22.5983 C   0  0  0  0  0  0  0  0  0  0  0  0
  -13.6082   -2.6333  -21.6370 C   0  0  0  0  0  0  0  0  0  0  0  0
  -12.6145   -3.4652  -21.1488 C   0  0  0  0  0  0  0  0  0  0  0  0
  -12.9512   -4.3108  -20.1616 F   0  0  0  0  0  0  0  0  0  0  0  0
  -11.2918   -3.3762  -21.5440 C   0  0  0  0  0  0  0  0  0  0  0  0
  -10.8968   -2.3625  -22.4254 C   0  0  0  0  0  0  0  0  0  0  0  0
  -10.5764   -4.0342  -21.0663 H   0  0  0  0  0  0  0  0  0  0  0  0
  -14.6124   -2.7645  -21.2585 H   0  0  0  0  0  0  0  0  0  0  0  0
  -13.9932   -1.0468  -23.0333 H   0  0  0  0  0  0  0  0  0  0  0  0
   -8.3260   -0.9083  -24.1493 H   0  0  0  0  0  0  0  0  0  0  0  0
   -9.3748   -2.2026  -24.8057 H   0  0  0  0  0  0  0  0  0  0  0  0
   -6.5196   -2.2157  -22.9652 H   0  0  0  0  0  0  0  0  0  0  0  0
   -6.4526   -3.1147  -21.4488 H   0  0  0  0  0  0  0  0  0  0  0  0
   -8.7220   -3.8354  -21.6947 H   0  0  0  0  0  0  0  0  0  0  0  0
   -7.4659   -4.8777  -23.5456 H   0  0  0  0  0  0  0  0  0  0  0  0
   -9.0737   -4.4836  -24.1694 H   0  0  0  0  0  0  0  0  0  0  0  0
   -7.6919   -3.4557  -24.5509 H   0  0  0  0  0  0  0  0  0  0  0  0
  1  2  1  0
  2  3  1  0
  3  4  1  0
  4  5  1  0
  5  6  2  0
  6  7  1  0
  7  8  2  0
  8  9  1  0
  9 10  2  0
 10 11  1  0
 11 12  2  0
 12 13  1  0
 13 14  2  0
 13 15  1  0
 12 16  1  0
 11 17  1  0
 10 18  1  0
  8 19  1  0
  6 20  1  0
  4 21  1  0
 21 22  2  0
 21 23  1  0
 23 24  1  6
 24 25  1  0
 25 26  1  0
 26 27  1  0
 27 28  2  0
 28 29  1  0
 29 30  2  0
 30 31  1  0
 31 32  1  0
 32 33  1  0
 32 34  1  0
 32 35  1  0
 26 36  1  0
 26 37  1  0
 25 38  1  0
 38 39  2  0
 38 40  1  0
 40 41  2  0
 41 42  1  0
 42 43  2  0
 43 44  1  0
 43 45  1  0
 45 46  2  0
 45 47  1  0
 42 48  1  0
 41 49  1  0
 24 50  1  0
 24 51  1  0
  3 52  1  0
  3 53  1  0
  2 54  1  1
  1 55  1  0
  1 56  1  0
  1 57  1  0
 23  2  1  0
 31 27  1  0
 46 40  1  0
 14  5  1  0
 46 23  1  0
 14  9  1  0
M  END
>  <cnnaffinities>  (32) 
[6.70587, 6.16254]

>  <score>  (32) 
6.70587

>  <index>  (32) 
32

>  <Smiles>  (32) 
C([C@]1(C(N(c2c(nc(c3c(c(c(c(c23)[H])[H])[H])[H])[H])[H])C(=O)[C@]21C(N(C(c1nnnn1C([H])([H])[H])([H])[H])C(=O)c1c(c(c(F)c(c21)[H])[H])[H])([H])[H])([H])[H])[H])([H])([H])[H]

>  <h>  (32) 
<NA>

>  <Training>  (32) 
True

>  <Success>  (32) 
True

>  <enamine_searched>  (32) 
False

>  <enamine_id>  (32) 
nan

$$$$

     RDKit          3D

 66 70  0  0  0  0  0  0  0  0999 V2000
   -7.4415    3.2931  -21.6890 C   0  0  0  0  0  0  0  0  0  0  0  0
   -8.3500    2.9009  -22.7431 N   0  0  0  0  0  0  0  0  0  0  0  0
   -7.8192    2.2420  -23.7967 C   0  0  0  0  0  0  0  0  0  0  0  0
   -6.6131    2.1315  -23.9457 O   0  0  0  0  0  0  0  0  0  0  0  0
   -8.7853    1.6436  -24.8117 C   0  0  0  0  0  0  0  0  0  0  0  0
   -9.4665    0.4627  -24.3242 N   0  0  0  0  0  0  0  0  0  0  0  0
   -8.7050   -0.7639  -24.1764 C   0  0  0  0  0  0  0  0  0  0  0  0
   -9.0683   -1.5191  -22.8767 C   0  0  2  0  0  0  0  0  0  0  0  0
   -8.5389   -0.7509  -21.6428 C   0  0  0  0  0  0  0  0  0  0  0  0
   -9.0182    0.2391  -21.1278 O   0  0  0  0  0  0  0  0  0  0  0  0
   -7.4019   -1.3792  -21.1974 N   0  0  0  0  0  0  0  0  0  0  0  0
   -6.6021   -0.8091  -20.1737 C   0  0  0  0  0  0  0  0  0  0  0  0
   -6.9122   -1.0404  -18.8569 C   0  0  0  0  0  0  0  0  0  0  0  0
   -6.2061   -0.5455  -17.8147 N   0  0  0  0  0  0  0  0  0  0  0  0
   -5.1700    0.2091  -18.0816 C   0  0  0  0  0  0  0  0  0  0  0  0
   -4.7343    0.5303  -19.3998 C   0  0  0  0  0  0  0  0  0  0  0  0
   -3.6077    1.3634  -19.6425 C   0  0  0  0  0  0  0  0  0  0  0  0
   -3.2209    1.6577  -20.9224 C   0  0  0  0  0  0  0  0  0  0  0  0
   -3.9456    1.1348  -22.0178 C   0  0  0  0  0  0  0  0  0  0  0  0
   -5.0395    0.3270  -21.8079 C   0  0  0  0  0  0  0  0  0  0  0  0
   -5.4660    0.0026  -20.4895 C   0  0  0  0  0  0  0  0  0  0  0  0
   -5.5984   -0.0446  -22.6619 H   0  0  0  0  0  0  0  0  0  0  0  0
   -3.6559    1.3791  -23.0350 H   0  0  0  0  0  0  0  0  0  0  0  0
   -2.3685    2.3088  -21.1000 H   0  0  0  0  0  0  0  0  0  0  0  0
   -3.0744    1.7644  -18.7848 H   0  0  0  0  0  0  0  0  0  0  0  0
   -4.6131    0.6070  -17.2330 H   0  0  0  0  0  0  0  0  0  0  0  0
   -7.7699   -1.6607  -18.6035 H   0  0  0  0  0  0  0  0  0  0  0  0
   -7.0421   -2.5683  -21.9431 C   0  0  0  0  0  0  0  0  0  0  0  0
   -8.3040   -2.8752  -22.7690 C   0  0  2  0  0  0  0  0  0  0  0  0
   -7.9721   -3.6134  -24.0738 C   0  0  0  0  0  0  0  0  0  0  0  0
   -9.1145   -3.9439  -24.8315 O   0  0  0  0  0  0  0  0  0  0  0  0
   -9.6954   -5.2128  -24.5491 C   0  0  0  0  0  0  0  0  0  0  0  0
  -11.1895   -5.0659  -24.7530 C   0  0  0  0  0  0  0  0  0  0  0  0
  -11.6925   -6.0166  -24.5535 H   0  0  0  0  0  0  0  0  0  0  0  0
  -11.5963   -4.3024  -24.0841 H   0  0  0  0  0  0  0  0  0  0  0  0
  -11.3992   -4.7585  -25.7805 H   0  0  0  0  0  0  0  0  0  0  0  0
   -9.0745   -6.3011  -25.4175 C   0  0  0  0  0  0  0  0  0  0  0  0
   -9.5085   -7.2751  -25.1824 H   0  0  0  0  0  0  0  0  0  0  0  0
   -7.9977   -6.3841  -25.2542 H   0  0  0  0  0  0  0  0  0  0  0  0
   -9.2347   -6.1127  -26.4768 H   0  0  0  0  0  0  0  0  0  0  0  0
   -9.5019   -5.4566  -23.4965 H   0  0  0  0  0  0  0  0  0  0  0  0
   -7.3948   -4.5217  -23.8468 H   0  0  0  0  0  0  0  0  0  0  0  0
   -7.3377   -2.9810  -24.7086 H   0  0  0  0  0  0  0  0  0  0  0  0
   -8.9541   -3.5320  -22.1876 H   0  0  0  0  0  0  0  0  0  0  0  0
   -6.1749   -2.3740  -22.5917 H   0  0  0  0  0  0  0  0  0  0  0  0
   -6.7698   -3.3824  -21.2629 H   0  0  0  0  0  0  0  0  0  0  0  0
  -10.5822   -1.6139  -22.8121 C   0  0  0  0  0  0  0  0  0  0  0  0
  -11.1898   -2.5300  -21.9445 C   0  0  0  0  0  0  0  0  0  0  0  0
  -12.5683   -2.5799  -21.8430 C   0  0  0  0  0  0  0  0  0  0  0  0
  -13.3072   -3.7131  -20.7418 Cl  0  0  0  0  0  0  0  0  0  0  0  0
  -13.3858   -1.7334  -22.5946 C   0  0  0  0  0  0  0  0  0  0  0  0
  -12.7982   -0.7851  -23.4105 C   0  0  0  0  0  0  0  0  0  0  0  0
  -11.4083   -0.7047  -23.4909 C   0  0  0  0  0  0  0  0  0  0  0  0
  -10.8319    0.4553  -24.2437 C   0  0  0  0  0  0  0  0  0  0  0  0
  -11.5396    1.3426  -24.7080 O   0  0  0  0  0  0  0  0  0  0  0  0
  -13.3777   -0.0617  -23.9810 H   0  0  0  0  0  0  0  0  0  0  0  0
  -14.4623   -1.8109  -22.5036 H   0  0  0  0  0  0  0  0  0  0  0  0
  -10.5930   -3.1767  -21.3111 H   0  0  0  0  0  0  0  0  0  0  0  0
   -8.9080   -1.4389  -25.0201 H   0  0  0  0  0  0  0  0  0  0  0  0
   -7.6461   -0.4897  -24.1681 H   0  0  0  0  0  0  0  0  0  0  0  0
   -9.5829    2.3409  -25.0714 H   0  0  0  0  0  0  0  0  0  0  0  0
   -8.1713    1.4043  -25.6870 H   0  0  0  0  0  0  0  0  0  0  0  0
   -9.3243    2.7833  -22.5210 H   0  0  0  0  0  0  0  0  0  0  0  0
   -6.7984    2.4540  -21.4174 H   0  0  0  0  0  0  0  0  0  0  0  0
   -6.7968    4.1021  -22.0274 H   0  0  0  0  0  0  0  0  0  0  0  0
   -8.0154    3.6021  -20.8285 H   0  0  0  0  0  0  0  0  0  0  0  0
  1  2  1  0
  2  3  1  0
  3  4  2  0
  3  5  1  0
  5  6  1  0
  6  7  1  0
  8  7  1  6
  8  9  1  0
  9 10  2  0
  9 11  1  0
 11 12  1  0
 12 13  2  0
 13 14  1  0
 14 15  2  0
 15 16  1  0
 16 17  2  0
 17 18  1  0
 18 19  2  0
 19 20  1  0
 20 21  2  0
 20 22  1  0
 19 23  1  0
 18 24  1  0
 17 25  1  0
 15 26  1  0
 13 27  1  0
 11 28  1  0
 28 29  1  0
 29 30  1  0
 30 31  1  0
 31 32  1  0
 32 33  1  0
 33 34  1  0
 33 35  1  0
 33 36  1  0
 32 37  1  0
 37 38  1  0
 37 39  1  0
 37 40  1  0
 32 41  1  0
 30 42  1  0
 30 43  1  0
 29 44  1  1
 28 45  1  0
 28 46  1  0
  8 47  1  0
 47 48  2  0
 48 49  1  0
 49 50  1  0
 49 51  2  0
 51 52  1  0
 52 53  2  0
 53 54  1  0
 54 55  2  0
 52 56  1  0
 51 57  1  0
 48 58  1  0
  7 59  1  0
  7 60  1  0
  5 61  1  0
  5 62  1  0
  2 63  1  0
  1 64  1  0
  1 65  1  0
  1 66  1  0
 54  6  1  0
 29  8  1  0
 53 47  1  0
 21 12  1  0
 21 16  1  0
M  END
>  <cnnaffinities>  (33) 
[6.4844, 6.3911, 6.35695, 6.37818, 6.61474]

>  <score>  (33) 
6.4844

>  <index>  (33) 
34

>  <Smiles>  (33) 
C(N(C(=O)C(N1C([C@@]2(C(=O)N(c3c(nc(c4c(c(c(c(c34)[H])[H])[H])[H])[H])[H])C([C@@]2(C(OC(C([H])([H])[H])(C([H])([H])[H])[H])([H])[H])[H])([H])[H])c2c(c(Cl)c(c(c2C1=O)[H])[H])[H])([H])[H])([H])[H])[H])([H])([H])[H]

>  <h>  (33) 
<NA>

>  <Training>  (33) 
True

>  <Success>  (33) 
True

>  <enamine_searched>  (33) 
False

>  <enamine_id>  (33) 
nan

$$$$

     RDKit          3D

 40 42  0  0  0  0  0  0  0  0999 V2000
   -9.1786   -1.9547  -22.6044 O   0  0  0  0  0  0  0  0  0  0  0  0
   -8.2692   -1.1652  -22.3661 C   0  0  0  0  0  0  0  0  0  0  0  0
   -6.8772   -1.6339  -21.9595 C   0  0  0  0  0  0  0  0  0  0  0  0
   -6.3243   -0.9046  -20.7423 C   0  0  0  0  0  0  0  0  0  0  0  0
   -6.9550   -1.0295  -19.5286 C   0  0  0  0  0  0  0  0  0  0  0  0
   -6.5568   -0.4452  -18.3705 N   0  0  0  0  0  0  0  0  0  0  0  0
   -5.4924    0.3156  -18.4134 C   0  0  0  0  0  0  0  0  0  0  0  0
   -4.7391    0.5588  -19.5927 C   0  0  0  0  0  0  0  0  0  0  0  0
   -3.6181    1.4295  -19.6072 C   0  0  0  0  0  0  0  0  0  0  0  0
   -2.9423    1.6738  -20.7719 C   0  0  0  0  0  0  0  0  0  0  0  0
   -3.3773    1.0763  -21.9734 C   0  0  0  0  0  0  0  0  0  0  0  0
   -4.4499    0.2171  -21.9787 C   0  0  0  0  0  0  0  0  0  0  0  0
   -5.1618   -0.0720  -20.7902 C   0  0  0  0  0  0  0  0  0  0  0  0
   -4.7740   -0.2129  -22.9230 H   0  0  0  0  0  0  0  0  0  0  0  0
   -2.8724    1.2992  -22.9082 H   0  0  0  0  0  0  0  0  0  0  0  0
   -2.0831    2.3379  -20.7851 H   0  0  0  0  0  0  0  0  0  0  0  0
   -3.3340    1.9213  -18.6804 H   0  0  0  0  0  0  0  0  0  0  0  0
   -5.1787    0.7865  -17.4816 H   0  0  0  0  0  0  0  0  0  0  0  0
   -7.8475   -1.6512  -19.4397 H   0  0  0  0  0  0  0  0  0  0  0  0
   -6.9741   -2.7007  -21.7573 H   0  0  0  0  0  0  0  0  0  0  0  0
   -6.1935   -1.5463  -22.8060 H   0  0  0  0  0  0  0  0  0  0  0  0
   -8.3688    0.2021  -22.4091 N   0  0  0  0  0  0  0  0  0  0  0  0
   -9.5347    0.8712  -21.7742 C   0  0  0  0  0  0  0  0  0  0  0  0
   -9.5212    1.0162  -21.9548 C   0  0  0  0  0  0  0  0  0  0  0  0
   -9.2235    2.7178  -23.7692 C   0  0  0  0  0  0  0  0  0  0  0  0
   -8.5171    5.3607  -23.2081 C   0  0  0  0  0  0  0  0  0  0  0  0
   -7.9538    5.9959  -24.2146 F   0  0  0  0  0  0  0  0  0  0  0  0
   -9.4249    6.1113  -22.6204 F   0  0  0  0  0  0  0  0  0  0  0  0
   -7.6134    4.9552  -22.3367 F   0  0  0  0  0  0  0  0  0  0  0  0
   -7.9531    2.3287  -23.7156 C   0  0  0  0  0  0  0  0  0  0  0  0
   -7.4108    1.0237  -23.1996 C   0  0  0  0  0  0  0  0  0  0  0  0
   -7.0382    0.4242  -24.0378 H   0  0  0  0  0  0  0  0  0  0  0  0
   -6.5610    1.2626  -22.5575 H   0  0  0  0  0  0  0  0  0  0  0  0
  -10.0180    2.0147  -23.6264 H   0  0  0  0  0  0  0  0  0  0  0  0
   -7.1425    2.9703  -24.0543 H   0  0  0  0  0  0  0  0  0  0  0  0
   -9.4588    3.7571  -24.0027 H   0  0  0  0  0  0  0  0  0  0  0  0
  -10.4263    1.8015  -21.7060 H   0  0  0  0  0  0  0  0  0  0  0  0
   -8.7772    1.8685  -21.4859 H   0  0  0  0  0  0  0  0  0  0  0  0
   -9.8178    0.0768  -20.4682 H   0  0  0  0  0  0  0  0  0  0  0  0
  -10.3145    0.4841  -22.7158 H   0  0  0  0  0  0  0  0  0  0  0  0
  1  2  2  0
  2  3  1  0
  3  4  1  0
  4  5  2  0
  5  6  1  0
  6  7  2  0
  7  8  1  0
  8  9  2  0
  9 10  1  0
 10 11  2  0
 11 12  1  0
 12 13  2  0
 12 14  1  0
 11 15  1  0
 10 16  1  0
  9 17  1  0
  7 18  1  0
  5 19  1  0
  3 20  1  0
  3 21  1  0
  2 22  1  0
 22 23  1  0
 23 24  1  0
 24 25  1  0
 25 26  1  0
 26 27  1  0
 26 28  1  0
 26 29  1  0
 25 30  1  0
 30 31  1  0
 31 32  1  0
 31 33  1  0
 30 34  1  0
 30 35  1  0
 25 36  1  0
 24 37  1  0
 24 38  1  0
 23 39  1  0
 23 40  1  0
 13  4  1  0
 31 22  1  0
 13  8  1  0
M  END
>  <cnnaffinities>  (34) 
[4.90664]

>  <score>  (34) 
4.90664

>  <index>  (34) 
35

>  <Smiles>  (34) 
O=C(C(c1c(nc(c2c(c(c(c(c12)[H])[H])[H])[H])[H])[H])([H])[H])N1C(C(C(C(F)(F)F)(C(C1([H])[H])([H])[H])[H])([H])[H])([H])[H]

>  <h>  (34) 
<NA>

>  <Training>  (34) 
True

>  <Success>  (34) 
True

>  <enamine_searched>  (34) 
False

>  <enamine_id>  (34) 
nan

$$$$

     RDKit          3D

 47 50  0  0  0  0  0  0  0  0999 V2000
   -6.0893   -3.4679  -21.2139 O   0  0  0  0  0  0  0  0  0  0  0  0
   -6.6466   -2.6601  -21.9364 C   0  0  0  0  0  0  0  0  0  0  0  0
   -7.3873   -1.4621  -21.2916 C   0  0  0  0  0  0  0  0  0  0  0  0
   -6.5771   -0.8244  -20.1823 C   0  0  0  0  0  0  0  0  0  0  0  0
   -6.8715   -1.0456  -18.8615 C   0  0  0  0  0  0  0  0  0  0  0  0
   -6.1824   -0.5376  -17.8036 N   0  0  0  0  0  0  0  0  0  0  0  0
   -5.1537    0.2248  -18.0678 C   0  0  0  0  0  0  0  0  0  0  0  0
   -4.7188    0.5364  -19.3827 C   0  0  0  0  0  0  0  0  0  0  0  0
   -3.5904    1.3597  -19.6233 C   0  0  0  0  0  0  0  0  0  0  0  0
   -3.1921    1.6374  -20.9022 C   0  0  0  0  0  0  0  0  0  0  0  0
   -3.9089    1.0964  -21.9933 C   0  0  0  0  0  0  0  0  0  0  0  0
   -5.0048    0.2966  -21.7875 C   0  0  0  0  0  0  0  0  0  0  0  0
   -5.4467   -0.0030  -20.4731 C   0  0  0  0  0  0  0  0  0  0  0  0
   -5.5374   -0.1112  -22.6425 H   0  0  0  0  0  0  0  0  0  0  0  0
   -3.5917    1.3211  -23.0063 H   0  0  0  0  0  0  0  0  0  0  0  0
   -2.3334    2.2769  -21.0883 H   0  0  0  0  0  0  0  0  0  0  0  0
   -3.0554    1.7711  -18.7706 H   0  0  0  0  0  0  0  0  0  0  0  0
   -4.6022    0.6280  -17.2155 H   0  0  0  0  0  0  0  0  0  0  0  0
   -7.7192   -1.6691  -18.5817 H   0  0  0  0  0  0  0  0  0  0  0  0
   -8.3128   -1.8621  -20.8609 H   0  0  0  0  0  0  0  0  0  0  0  0
   -7.6900   -0.7093  -22.0275 H   0  0  0  0  0  0  0  0  0  0  0  0
   -6.6110   -2.7881  -23.3140 N   0  0  0  0  0  0  0  0  0  0  0  0
   -5.5562   -3.6026  -23.9118 C   0  0  0  0  0  0  0  0  0  0  0  0
   -6.0969   -4.6259  -24.9088 C   0  0  0  0  0  0  0  0  0  0  0  0
   -7.0958   -4.0161  -25.9093 C   0  0  0  0  0  0  0  0  0  0  0  0
   -7.2808   -2.5179  -25.6783 C   0  0  0  0  0  0  0  0  0  0  0  0
   -7.5709   -2.1517  -24.2126 C   0  0  1  0  0  0  0  0  0  0  0  0
   -9.0169   -2.4572  -23.8361 C   0  0  0  0  0  0  0  0  0  0  0  0
   -9.4035   -3.7238  -23.3996 C   0  0  0  0  0  0  0  0  0  0  0  0
  -10.7323   -3.9932  -23.0904 C   0  0  0  0  0  0  0  0  0  0  0  0
  -11.7015   -3.0048  -23.2252 C   0  0  0  0  0  0  0  0  0  0  0  0
  -11.3326   -1.7453  -23.6861 C   0  0  0  0  0  0  0  0  0  0  0  0
  -10.0003   -1.4782  -23.9944 C   0  0  0  0  0  0  0  0  0  0  0  0
   -9.7322   -0.4912  -24.3657 H   0  0  0  0  0  0  0  0  0  0  0  0
  -12.0837   -0.9686  -23.8003 H   0  0  0  0  0  0  0  0  0  0  0  0
  -12.7366   -3.2200  -22.9741 H   0  0  0  0  0  0  0  0  0  0  0  0
  -11.0087   -4.9796  -22.7341 H   0  0  0  0  0  0  0  0  0  0  0  0
   -8.6599   -4.5080  -23.2919 H   0  0  0  0  0  0  0  0  0  0  0  0
   -7.4414   -1.0640  -24.1375 H   0  0  0  0  0  0  0  0  0  0  0  0
   -6.4034   -1.9663  -26.0313 H   0  0  0  0  0  0  0  0  0  0  0  0
   -8.1078   -2.1559  -26.2916 H   0  0  0  0  0  0  0  0  0  0  0  0
   -8.0675   -4.5160  -25.8217 H   0  0  0  0  0  0  0  0  0  0  0  0
   -6.7647   -4.1824  -26.9400 H   0  0  0  0  0  0  0  0  0  0  0  0
   -5.2521   -5.0744  -25.4393 H   0  0  0  0  0  0  0  0  0  0  0  0
   -6.5706   -5.4443  -24.3604 H   0  0  0  0  0  0  0  0  0  0  0  0
   -4.8307   -2.9439  -24.4102 H   0  0  0  0  0  0  0  0  0  0  0  0
   -5.0286   -4.0995  -23.1009 H   0  0  0  0  0  0  0  0  0  0  0  0
  1  2  2  0
  2  3  1  0
  3  4  1  0
  4  5  2  0
  5  6  1  0
  6  7  2  0
  7  8  1  0
  8  9  2  0
  9 10  1  0
 10 11  2  0
 11 12  1  0
 12 13  2  0
 12 14  1  0
 11 15  1  0
 10 16  1  0
  9 17  1  0
  7 18  1  0
  5 19  1  0
  3 20  1  0
  3 21  1  0
  2 22  1  0
 22 23  1  0
 23 24  1  0
 24 25  1  0
 25 26  1  0
 26 27  1  0
 27 28  1  0
 28 29  2  0
 29 30  1  0
 30 31  2  0
 31 32  1  0
 32 33  2  0
 33 34  1  0
 32 35  1  0
 31 36  1  0
 30 37  1  0
 29 38  1  0
 27 39  1  6
 26 40  1  0
 26 41  1  0
 25 42  1  0
 25 43  1  0
 24 44  1  0
 24 45  1  0
 23 46  1  0
 23 47  1  0
 13  4  1  0
 27 22  1  0
 33 28  1  0
 13  8  1  0
M  END
>  <cnnaffinities>  (35) 
[5.6372, 5.63424, 4.64618, 4.64563, 5.36034, 4.72659, 4.72581, 5.38954]

>  <score>  (35) 
5.6372

>  <index>  (35) 
36

>  <Smiles>  (35) 
O=C(C(c1c(nc(c2c(c(c(c(c12)[H])[H])[H])[H])[H])[H])([H])[H])N1C(C(C(C([C@]1(c1c(c(c(c(c1[H])[H])[H])[H])[H])[H])([H])[H])([H])[H])([H])[H])([H])[H]

>  <h>  (35) 
<NA>

>  <Training>  (35) 
True

>  <Success>  (35) 
True

>  <enamine_searched>  (35) 
False

>  <enamine_id>  (35) 
nan

$$$$

     RDKit          3D

 56 60  0  0  0  0  0  0  0  0999 V2000
  -14.4959   -1.5489  -23.7655 C   0  0  0  0  0  0  0  0  0  0  0  0
  -13.7400   -2.6959  -23.3175 N   0  0  0  0  0  0  0  0  0  0  0  0
  -13.3295   -2.7282  -22.0264 C   0  0  0  0  0  0  0  0  0  0  0  0
  -13.6417   -1.8678  -21.2192 O   0  0  0  0  0  0  0  0  0  0  0  0
  -12.4537   -3.9171  -21.6843 C   0  0  0  0  0  0  0  0  0  0  0  0
  -11.1220   -3.8678  -22.2568 N   0  0  0  0  0  0  0  0  0  0  0  0
  -10.0021   -3.3632  -21.4725 C   0  0  0  0  0  0  0  0  0  0  0  0
   -8.8031   -2.9122  -22.3443 C   0  0  2  0  0  0  0  0  0  0  0  0
   -7.5678   -2.6993  -21.4507 C   0  0  0  0  0  0  0  0  0  0  0  0
   -6.8265   -3.5568  -21.0202 O   0  0  0  0  0  0  0  0  0  0  0  0
   -7.4046   -1.3466  -21.2344 N   0  0  0  0  0  0  0  0  0  0  0  0
   -6.5818   -0.8509  -20.1945 C   0  0  0  0  0  0  0  0  0  0  0  0
   -6.8890   -1.0975  -18.8806 C   0  0  0  0  0  0  0  0  0  0  0  0
   -6.2131   -0.5658  -17.8323 N   0  0  0  0  0  0  0  0  0  0  0  0
   -5.1936    0.2098  -18.0963 C   0  0  0  0  0  0  0  0  0  0  0  0
   -4.7478    0.5189  -19.4123 C   0  0  0  0  0  0  0  0  0  0  0  0
   -3.6212    1.3451  -19.6479 C   0  0  0  0  0  0  0  0  0  0  0  0
   -3.2174    1.6114  -20.9259 C   0  0  0  0  0  0  0  0  0  0  0  0
   -3.9178    1.0646  -22.0240 C   0  0  0  0  0  0  0  0  0  0  0  0
   -5.0137    0.2622  -21.8232 C   0  0  0  0  0  0  0  0  0  0  0  0
   -5.4593   -0.0227  -20.5052 C   0  0  0  0  0  0  0  0  0  0  0  0
   -5.5353   -0.1689  -22.6723 H   0  0  0  0  0  0  0  0  0  0  0  0
   -3.5881    1.2826  -23.0347 H   0  0  0  0  0  0  0  0  0  0  0  0
   -2.3626    2.2559  -21.1045 H   0  0  0  0  0  0  0  0  0  0  0  0
   -3.0997    1.7575  -18.7890 H   0  0  0  0  0  0  0  0  0  0  0  0
   -4.6535    0.6330  -17.2478 H   0  0  0  0  0  0  0  0  0  0  0  0
   -7.7300   -1.7385  -18.6264 H   0  0  0  0  0  0  0  0  0  0  0  0
   -8.3932   -0.5208  -21.9048 C   0  0  0  0  0  0  0  0  0  0  0  0
   -9.0137   -1.4732  -22.9395 C   0  0  2  0  0  0  0  0  0  0  0  0
  -10.4569   -1.1259  -23.2773 C   0  0  0  0  0  0  0  0  0  0  0  0
  -10.8789   -1.8889  -23.9359 H   0  0  0  0  0  0  0  0  0  0  0  0
  -10.5362   -0.1544  -23.7718 H   0  0  0  0  0  0  0  0  0  0  0  0
  -11.0662   -1.0995  -22.3671 H   0  0  0  0  0  0  0  0  0  0  0  0
   -8.4032   -1.4363  -23.8539 H   0  0  0  0  0  0  0  0  0  0  0  0
   -9.1508   -0.1522  -21.1937 H   0  0  0  0  0  0  0  0  0  0  0  0
   -7.9240    0.3535  -22.3712 H   0  0  0  0  0  0  0  0  0  0  0  0
   -8.5359   -3.9678  -23.3880 C   0  0  0  0  0  0  0  0  0  0  0  0
   -7.2655   -4.1126  -23.9492 C   0  0  0  0  0  0  0  0  0  0  0  0
   -7.0353   -5.0493  -24.9407 C   0  0  0  0  0  0  0  0  0  0  0  0
   -8.0578   -5.8894  -25.3774 C   0  0  0  0  0  0  0  0  0  0  0  0
   -9.3195   -5.7540  -24.8322 C   0  0  0  0  0  0  0  0  0  0  0  0
   -9.5655   -4.7739  -23.8748 C   0  0  0  0  0  0  0  0  0  0  0  0
  -10.9638   -4.5609  -23.4181 C   0  0  0  0  0  0  0  0  0  0  0  0
  -11.9328   -4.9660  -24.0605 O   0  0  0  0  0  0  0  0  0  0  0  0
  -10.1372   -6.3951  -25.1370 H   0  0  0  0  0  0  0  0  0  0  0  0
   -7.8680   -6.6284  -26.1501 H   0  0  0  0  0  0  0  0  0  0  0  0
   -6.0563   -5.1085  -25.3977 H   0  0  0  0  0  0  0  0  0  0  0  0
   -6.4480   -3.4918  -23.5967 H   0  0  0  0  0  0  0  0  0  0  0  0
  -10.3427   -2.4947  -20.8969 H   0  0  0  0  0  0  0  0  0  0  0  0
   -9.6866   -4.1527  -20.7867 H   0  0  0  0  0  0  0  0  0  0  0  0
  -12.4280   -4.0708  -20.6066 H   0  0  0  0  0  0  0  0  0  0  0  0
  -12.9390   -4.7604  -22.1701 H   0  0  0  0  0  0  0  0  0  0  0  0
  -13.4980   -3.4636  -23.9326 H   0  0  0  0  0  0  0  0  0  0  0  0
  -13.8786   -0.6426  -23.7630 H   0  0  0  0  0  0  0  0  0  0  0  0
  -15.3437   -1.3732  -23.0974 H   0  0  0  0  0  0  0  0  0  0  0  0
  -14.8631   -1.7130  -24.7781 H   0  0  0  0  0  0  0  0  0  0  0  0
  1  2  1  0
  2  3  1  0
  3  4  2  0
  3  5  1  0
  5  6  1  0
  6  7  1  0
  8  7  1  1
  8  9  1  0
  9 10  2  0
  9 11  1  0
 11 12  1  0
 12 13  2  0
 13 14  1  0
 14 15  2  0
 15 16  1  0
 16 17  2  0
 17 18  1  0
 18 19  2  0
 19 20  1  0
 20 21  2  0
 20 22  1  0
 19 23  1  0
 18 24  1  0
 17 25  1  0
 15 26  1  0
 13 27  1  0
 11 28  1  0
 28 29  1  0
 29 30  1  0
 30 31  1  0
 30 32  1  0
 30 33  1  0
 29 34  1  6
 28 35  1  0
 28 36  1  0
  8 37  1  0
 37 38  2  0
 38 39  1  0
 39 40  2  0
 40 41  1  0
 41 42  2  0
 42 43  1  0
 43 44  2  0
 41 45  1  0
 40 46  1  0
 39 47  1  0
 38 48  1  0
  7 49  1  0
  7 50  1  0
  5 51  1  0
  5 52  1  0
  2 53  1  0
  1 54  1  0
  1 55  1  0
  1 56  1  0
 43  6  1  0
 29  8  1  0
 42 37  1  0
 21 12  1  0
 21 16  1  0
M  END
>  <cnnaffinities>  (36) 
[6.5129, 6.31452]

>  <score>  (36) 
6.5129

>  <index>  (36) 
37

>  <Smiles>  (36) 
C(N(C(=O)C(N1C([C@@]2(C(=O)N(c3c(nc(c4c(c(c(c(c34)[H])[H])[H])[H])[H])[H])C([C@@]2(C([H])([H])[H])[H])([H])[H])c2c(c(c(c(c2C1=O)[H])[H])[H])[H])([H])[H])([H])[H])[H])([H])([H])[H]

>  <h>  (36) 
<NA>

>  <Training>  (36) 
True

>  <Success>  (36) 
True

>  <enamine_searched>  (36) 
False

>  <enamine_id>  (36) 
nan

$$$$

     RDKit          3D

 46 48  0  0  0  0  0  0  0  0999 V2000
   -8.0120   -4.5685  -26.4532 C   0  0  0  0  0  0  0  0  0  0  0  0
   -8.6085   -4.9228  -25.0823 C   0  0  1  0  0  0  0  0  0  0  0  0
   -7.5757   -5.5243  -24.1337 C   0  0  0  0  0  0  0  0  0  0  0  0
   -6.6090   -4.5102  -23.5246 C   0  0  1  0  0  0  0  0  0  0  0  0
   -5.4170   -4.1426  -24.4227 C   0  0  0  0  0  0  0  0  0  0  0  0
   -4.6100   -3.7199  -23.8203 H   0  0  0  0  0  0  0  0  0  0  0  0
   -5.6670   -3.4131  -25.1988 H   0  0  0  0  0  0  0  0  0  0  0  0
   -5.0365   -5.0463  -24.9144 H   0  0  0  0  0  0  0  0  0  0  0  0
   -7.3269   -3.3388  -22.9972 N   0  0  0  0  0  0  0  0  0  0  0  0
   -6.7136   -2.7160  -21.9308 C   0  0  0  0  0  0  0  0  0  0  0  0
   -5.6677   -3.1468  -21.4739 O   0  0  0  0  0  0  0  0  0  0  0  0
   -7.3963   -1.4878  -21.2919 C   0  0  0  0  0  0  0  0  0  0  0  0
   -6.5725   -0.8497  -20.2001 C   0  0  0  0  0  0  0  0  0  0  0  0
   -6.8733   -1.0585  -18.8790 C   0  0  0  0  0  0  0  0  0  0  0  0
   -6.1933   -0.5459  -17.8220 N   0  0  0  0  0  0  0  0  0  0  0  0
   -5.1609    0.2145  -18.0792 C   0  0  0  0  0  0  0  0  0  0  0  0
   -4.7203    0.5202  -19.3945 C   0  0  0  0  0  0  0  0  0  0  0  0
   -3.5948    1.3512  -19.6262 C   0  0  0  0  0  0  0  0  0  0  0  0
   -3.1930    1.6290  -20.9065 C   0  0  0  0  0  0  0  0  0  0  0  0
   -3.9017    1.0860  -21.9993 C   0  0  0  0  0  0  0  0  0  0  0  0
   -4.9951    0.2782  -21.7968 C   0  0  0  0  0  0  0  0  0  0  0  0
   -5.4386   -0.0269  -20.4839 C   0  0  0  0  0  0  0  0  0  0  0  0
   -5.5333   -0.1329  -22.6455 H   0  0  0  0  0  0  0  0  0  0  0  0
   -3.5857    1.3125  -23.0140 H   0  0  0  0  0  0  0  0  0  0  0  0
   -2.3369    2.2751  -21.0838 H   0  0  0  0  0  0  0  0  0  0  0  0
   -3.0741    1.7631  -18.7659 H   0  0  0  0  0  0  0  0  0  0  0  0
   -4.6188    0.6237  -17.2250 H   0  0  0  0  0  0  0  0  0  0  0  0
   -7.7245   -1.6768  -18.5947 H   0  0  0  0  0  0  0  0  0  0  0  0
   -7.6591   -0.7523  -22.0643 H   0  0  0  0  0  0  0  0  0  0  0  0
   -8.3527   -1.8232  -20.8659 H   0  0  0  0  0  0  0  0  0  0  0  0
   -8.4054   -2.7065  -23.7671 C   0  0  1  0  0  0  0  0  0  0  0  0
   -7.9315   -1.6629  -24.7910 C   0  0  0  0  0  0  0  0  0  0  0  0
   -7.4375   -2.0989  -25.6656 H   0  0  0  0  0  0  0  0  0  0  0  0
   -8.8015   -1.1094  -25.1634 H   0  0  0  0  0  0  0  0  0  0  0  0
   -7.2357   -0.9414  -24.3506 H   0  0  0  0  0  0  0  0  0  0  0  0
   -9.3266   -3.7648  -24.3856 C   0  0  0  0  0  0  0  0  0  0  0  0
   -9.9681   -4.1716  -23.5938 H   0  0  0  0  0  0  0  0  0  0  0  0
   -9.9803   -3.2632  -25.1108 H   0  0  0  0  0  0  0  0  0  0  0  0
   -9.0111   -2.1757  -23.0241 H   0  0  0  0  0  0  0  0  0  0  0  0
   -6.1828   -4.9785  -22.6360 H   0  0  0  0  0  0  0  0  0  0  0  0
   -8.0946   -6.0415  -23.3182 H   0  0  0  0  0  0  0  0  0  0  0  0
   -6.9895   -6.2749  -24.6755 H   0  0  0  0  0  0  0  0  0  0  0  0
   -9.3714   -5.6861  -25.2818 H   0  0  0  0  0  0  0  0  0  0  0  0
   -7.9880   -5.4472  -27.1180 H   0  0  0  0  0  0  0  0  0  0  0  0
   -8.6117   -3.7811  -26.9372 H   0  0  0  0  0  0  0  0  0  0  0  0
   -6.9946   -4.1889  -26.3812 H   0  0  0  0  0  0  0  0  0  0  0  0
  1  2  1  0
  2  3  1  0
  3  4  1  0
  4  5  1  0
  5  6  1  0
  5  7  1  0
  5  8  1  0
  4  9  1  0
  9 10  1  0
 10 11  2  0
 10 12  1  0
 12 13  1  0
 13 14  2  0
 14 15  1  0
 15 16  2  0
 16 17  1  0
 17 18  2  0
 18 19  1  0
 19 20  2  0
 20 21  1  0
 21 22  2  0
 21 23  1  0
 20 24  1  0
 19 25  1  0
 18 26  1  0
 16 27  1  0
 14 28  1  0
 12 29  1  0
 12 30  1  0
  9 31  1  0
 31 32  1  0
 32 33  1  0
 32 34  1  0
 32 35  1  0
 31 36  1  0
 36 37  1  0
 36 38  1  0
 31 39  1  1
  4 40  1  1
  3 41  1  0
  3 42  1  0
  2 43  1  6
  1 44  1  0
  1 45  1  0
  1 46  1  0
 36  2  1  0
 22 13  1  0
 22 17  1  0
M  END
>  <cnnaffinities>  (37) 
[5.33349]

>  <score>  (37) 
5.33349

>  <index>  (37) 
38

>  <Smiles>  (37) 
C([C@]1(C([C@@](C([H])([H])[H])(N(C(=O)C(c2c(nc(c3c(c(c(c(c23)[H])[H])[H])[H])[H])[H])([H])[H])[C@@](C([H])([H])[H])(C1([H])[H])[H])[H])([H])[H])[H])([H])([H])[H]

>  <h>  (37) 
<NA>

>  <Training>  (37) 
True

>  <Success>  (37) 
True

>  <enamine_searched>  (37) 
False

>  <enamine_id>  (37) 
nan

$$$$

     RDKit          3D

 40 44  0  0  0  0  0  0  0  0999 V2000
   -5.1695   -0.4459  -25.7357 C   0  0  0  0  0  0  0  0  0  0  0  0
   -6.6434   -0.3488  -25.3757 C   0  0  0  0  0  0  0  0  0  0  0  0
   -7.2410    0.7191  -25.3721 O   0  0  0  0  0  0  0  0  0  0  0  0
   -7.2808   -1.5210  -25.0853 N   0  0  0  0  0  0  0  0  0  0  0  0
   -6.6517   -2.8098  -24.7274 C   0  0  0  0  0  0  0  0  0  0  0  0
   -7.8285   -3.5188  -24.0271 C   0  0  2  0  0  0  0  0  0  0  0  0
   -9.0226   -2.9965  -24.8411 C   0  0  0  0  0  0  0  0  0  0  0  0
   -8.6708   -1.5260  -24.5547 C   0  0  1  0  0  0  0  0  0  0  0  0
   -8.5544   -1.5734  -23.0871 C   0  0  0  0  0  0  0  0  0  0  0  0
   -8.1580   -0.6217  -22.0909 C   0  0  0  0  0  0  0  0  0  0  0  0
   -8.3493    0.5660  -21.9949 O   0  0  0  0  0  1  0  0  0  0  0  0
   -7.3907   -1.3987  -21.1856 N   0  0  0  0  0  0  0  0  0  0  0  0
   -6.5765   -0.8289  -20.1726 C   0  0  0  0  0  0  0  0  0  0  0  0
   -6.8877   -1.0572  -18.8585 C   0  0  0  0  0  0  0  0  0  0  0  0
   -6.1907   -0.5397  -17.8191 N   0  0  0  0  0  0  0  0  0  0  0  0
   -5.1616    0.2188  -18.0862 C   0  0  0  0  0  0  0  0  0  0  0  0
   -4.7203    0.5301  -19.4013 C   0  0  0  0  0  0  0  0  0  0  0  0
   -3.5868    1.3547  -19.6348 C   0  0  0  0  0  0  0  0  0  0  0  0
   -3.1756    1.6248  -20.9107 C   0  0  0  0  0  0  0  0  0  0  0  0
   -3.8802    1.0686  -22.0042 C   0  0  0  0  0  0  0  0  0  0  0  0
   -4.9747    0.2667  -21.8047 C   0  0  0  0  0  0  0  0  0  0  0  0
   -5.4410   -0.0136  -20.4896 C   0  0  0  0  0  0  0  0  0  0  0  0
   -5.4957   -0.1486  -22.6653 H   0  0  0  0  0  0  0  0  0  0  0  0
   -3.5601    1.2881  -23.0183 H   0  0  0  0  0  0  0  0  0  0  0  0
   -2.3196    2.2689  -21.0930 H   0  0  0  0  0  0  0  0  0  0  0  0
   -3.0678    1.7673  -18.7737 H   0  0  0  0  0  0  0  0  0  0  0  0
   -4.6198    0.6226  -17.2300 H   0  0  0  0  0  0  0  0  0  0  0  0
   -7.7366   -1.6800  -18.5945 H   0  0  0  0  0  0  0  0  0  0  0  0
   -7.2467   -2.7215  -21.6277 C   0  0  0  0  0  0  0  0  0  0  0  0
   -6.5220   -3.5653  -21.1624 O   0  0  0  0  0  0  0  0  0  0  0  0
   -8.0673   -2.8079  -22.7489 N   0  0  0  0  0  0  0  0  0  0  0  0
   -9.2595   -0.7142  -24.9837 H   0  0  0  0  0  0  0  0  0  0  0  0
   -8.9648   -3.2414  -25.9064 H   0  0  0  0  0  0  0  0  0  0  0  0
   -9.9842   -3.3014  -24.4296 H   0  0  0  0  0  0  0  0  0  0  0  0
   -7.7192   -4.5859  -23.8799 H   0  0  0  0  0  0  0  0  0  0  0  0
   -5.8046   -2.7076  -24.0364 H   0  0  0  0  0  0  0  0  0  0  0  0
   -6.3311   -3.3495  -25.6224 H   0  0  0  0  0  0  0  0  0  0  0  0
   -4.9798   -1.1841  -26.5242 H   0  0  0  0  0  0  0  0  0  0  0  0
   -4.8805    0.5475  -26.0785 H   0  0  0  0  0  0  0  0  0  0  0  0
   -4.5386   -0.7254  -24.8810 H   0  0  0  0  0  0  0  0  0  0  0  0
  1  2  1  0
  2  3  2  0
  2  4  1  0
  4  5  1  0
  5  6  1  0
  6  7  1  0
  7  8  1  0
  8  9  1  0
  9 10  2  0
 10 11  1  0
 10 12  1  0
 12 13  1  0
 13 14  2  0
 14 15  1  0
 15 16  2  0
 16 17  1  0
 17 18  2  0
 18 19  1  0
 19 20  2  0
 20 21  1  0
 21 22  2  0
 21 23  1  0
 20 24  1  0
 19 25  1  0
 18 26  1  0
 16 27  1  0
 14 28  1  0
 12 29  1  0
 29 30  2  0
 29 31  1  0
  8 32  1  1
  7 33  1  0
  7 34  1  0
  6 35  1  1
  5 36  1  0
  5 37  1  0
  1 38  1  0
  1 39  1  0
  1 40  1  0
  8  4  1  0
 31  9  1  0
 31  6  1  0
 22 13  1  0
 22 17  1  0
M  CHG  1  11  -1
M  END
>  <cnnaffinities>  (38) 
[5.38964, 5.41963, 5.22647, 5.19802]

>  <score>  (38) 
5.38964

>  <index>  (38) 
39

>  <Smiles>  (38) 
C(C(=O)N1C([C@@]2(C([C@]1(c1c([O-])n(c3c(nc(c4c(c(c(c(c34)[H])[H])[H])[H])[H])[H])c(=O)n21)[H])([H])[H])[H])([H])[H])([H])([H])[H]

>  <h>  (38) 
<NA>

>  <Training>  (38) 
True

>  <Success>  (38) 
True

>  <enamine_searched>  (38) 
False

>  <enamine_id>  (38) 
nan

$$$$

     RDKit          3D

 40 42  0  0  0  0  0  0  0  0999 V2000
   -9.3054   -6.6306  -25.1071 C   0  0  0  0  0  0  0  0  0  0  0  0
   -8.9977   -5.8131  -23.8550 C   0  0  0  0  0  0  0  0  0  0  0  0
   -7.5561   -5.9903  -23.4027 C   0  0  0  0  0  0  0  0  0  0  0  0
   -7.2581   -5.1700  -22.1601 C   0  0  0  0  0  0  0  0  0  0  0  0
   -7.6217   -3.7628  -22.3160 N   0  0  0  0  0  0  0  0  0  0  0  0
   -6.7874   -2.8025  -21.7708 C   0  0  0  0  0  0  0  0  0  0  0  0
   -5.5891   -2.9898  -21.6703 O   0  0  0  0  0  0  0  0  0  0  0  0
   -7.4208   -1.4844  -21.2564 C   0  0  0  0  0  0  0  0  0  0  0  0
   -6.5812   -0.8260  -20.1829 C   0  0  0  0  0  0  0  0  0  0  0  0
   -6.8728   -1.0418  -18.8625 C   0  0  0  0  0  0  0  0  0  0  0  0
   -6.1825   -0.5387  -17.8076 N   0  0  0  0  0  0  0  0  0  0  0  0
   -5.1531    0.2240  -18.0703 C   0  0  0  0  0  0  0  0  0  0  0  0
   -4.7188    0.5330  -19.3843 C   0  0  0  0  0  0  0  0  0  0  0  0
   -3.5905    1.3588  -19.6215 C   0  0  0  0  0  0  0  0  0  0  0  0
   -3.1876    1.6342  -20.8998 C   0  0  0  0  0  0  0  0  0  0  0  0
   -3.8997    1.0890  -21.9913 C   0  0  0  0  0  0  0  0  0  0  0  0
   -4.9957    0.2875  -21.7862 C   0  0  0  0  0  0  0  0  0  0  0  0
   -5.4445   -0.0105  -20.4749 C   0  0  0  0  0  0  0  0  0  0  0  0
   -5.5163   -0.1419  -22.6358 H   0  0  0  0  0  0  0  0  0  0  0  0
   -3.5759    1.3068  -23.0049 H   0  0  0  0  0  0  0  0  0  0  0  0
   -2.3275    2.2737  -21.0834 H   0  0  0  0  0  0  0  0  0  0  0  0
   -3.0584    1.7722  -18.7676 H   0  0  0  0  0  0  0  0  0  0  0  0
   -4.6038    0.6272  -17.2165 H   0  0  0  0  0  0  0  0  0  0  0  0
   -7.7178   -1.6678  -18.5798 H   0  0  0  0  0  0  0  0  0  0  0  0
   -7.5634   -0.7947  -22.0995 H   0  0  0  0  0  0  0  0  0  0  0  0
   -8.4235   -1.6906  -20.8505 H   0  0  0  0  0  0  0  0  0  0  0  0
   -8.9717   -3.5137  -22.7992 C   0  0  0  0  0  0  0  0  0  0  0  0
   -9.2776   -4.3311  -24.0517 C   0  0  0  0  0  0  0  0  0  0  0  0
  -10.3247   -4.1829  -24.3331 H   0  0  0  0  0  0  0  0  0  0  0  0
   -8.6801   -3.9639  -24.8919 H   0  0  0  0  0  0  0  0  0  0  0  0
   -9.0718   -2.4529  -23.0288 H   0  0  0  0  0  0  0  0  0  0  0  0
   -9.7176   -3.7530  -22.0250 H   0  0  0  0  0  0  0  0  0  0  0  0
   -7.8198   -5.6252  -21.3340 H   0  0  0  0  0  0  0  0  0  0  0  0
   -6.2025   -5.2155  -21.8970 H   0  0  0  0  0  0  0  0  0  0  0  0
   -6.8809   -5.6979  -24.2102 H   0  0  0  0  0  0  0  0  0  0  0  0
   -7.3602   -7.0493  -23.1962 H   0  0  0  0  0  0  0  0  0  0  0  0
   -9.6422   -6.1609  -23.0445 H   0  0  0  0  0  0  0  0  0  0  0  0
   -9.1211   -7.7008  -24.9485 H   0  0  0  0  0  0  0  0  0  0  0  0
  -10.3491   -6.5112  -25.4235 H   0  0  0  0  0  0  0  0  0  0  0  0
   -8.6689   -6.3070  -25.9400 H   0  0  0  0  0  0  0  0  0  0  0  0
  1  2  1  0
  2  3  1  0
  3  4  1  0
  4  5  1  0
  5  6  1  0
  6  7  2  0
  6  8  1  0
  8  9  1  0
  9 10  2  0
 10 11  1  0
 11 12  2  0
 12 13  1  0
 13 14  2  0
 14 15  1  0
 15 16  2  0
 16 17  1  0
 17 18  2  0
 17 19  1  0
 16 20  1  0
 15 21  1  0
 14 22  1  0
 12 23  1  0
 10 24  1  0
  8 25  1  0
  8 26  1  0
  5 27  1  0
 27 28  1  0
 28 29  1  0
 28 30  1  0
 27 31  1  0
 27 32  1  0
  4 33  1  0
  4 34  1  0
  3 35  1  0
  3 36  1  0
  2 37  1  0
  1 38  1  0
  1 39  1  0
  1 40  1  0
 28  2  1  0
 18  9  1  0
 18 13  1  0
M  END
>  <cnnaffinities>  (39) 
[4.57303, 4.57244]

>  <score>  (39) 
4.57303

>  <index>  (39) 
40

>  <Smiles>  (39) 
C(C1(C(C(N(C(=O)C(c2c(nc(c3c(c(c(c(c23)[H])[H])[H])[H])[H])[H])([H])[H])C(C1([H])[H])([H])[H])([H])[H])([H])[H])[H])([H])([H])[H]

>  <h>  (39) 
<NA>

>  <Training>  (39) 
True

>  <Success>  (39) 
True

>  <enamine_searched>  (39) 
False

>  <enamine_id>  (39) 
nan

$$$$

     RDKit          3D

 67 71  0  0  0  0  0  0  0  0999 V2000
   -7.5899    2.9359  -21.7949 C   0  0  0  0  0  0  0  0  0  0  0  0
   -8.7242    2.4728  -22.5916 N   0  0  0  0  0  0  0  0  0  0  0  0
   -8.4633    1.7235  -23.7010 C   0  0  0  0  0  0  0  0  0  0  0  0
   -7.3166    1.4821  -24.0557 O   0  0  0  0  0  0  0  0  0  0  0  0
   -9.6723    1.1771  -24.4790 C   0  0  0  0  0  0  0  0  0  0  0  0
  -10.1264   -0.0704  -23.8962 N   0  0  0  0  0  0  0  0  0  0  0  0
   -9.2435   -1.2286  -23.8927 C   0  0  0  0  0  0  0  0  0  0  0  0
   -9.3111   -1.9697  -22.5262 C   0  0  2  0  0  0  0  0  0  0  0  0
   -8.7096   -1.0304  -21.4398 C   0  0  0  0  0  0  0  0  0  0  0  0
   -9.2379   -0.0608  -20.9331 O   0  0  0  0  0  0  0  0  0  0  0  0
   -7.4141   -1.4366  -21.1779 N   0  0  0  0  0  0  0  0  0  0  0  0
   -6.6254   -0.8322  -20.1671 C   0  0  0  0  0  0  0  0  0  0  0  0
   -6.9369   -1.0397  -18.8440 C   0  0  0  0  0  0  0  0  0  0  0  0
   -6.2218   -0.5425  -17.8104 N   0  0  0  0  0  0  0  0  0  0  0  0
   -5.1780    0.1949  -18.0901 C   0  0  0  0  0  0  0  0  0  0  0  0
   -4.7451    0.4966  -19.4111 C   0  0  0  0  0  0  0  0  0  0  0  0
   -3.6283    1.3387  -19.6542 C   0  0  0  0  0  0  0  0  0  0  0  0
   -3.2550    1.6408  -20.9351 C   0  0  0  0  0  0  0  0  0  0  0  0
   -3.9838    1.1206  -22.0265 C   0  0  0  0  0  0  0  0  0  0  0  0
   -5.0773    0.3072  -21.8158 C   0  0  0  0  0  0  0  0  0  0  0  0
   -5.4836   -0.0346  -20.4957 C   0  0  0  0  0  0  0  0  0  0  0  0
   -5.6762   -0.0069  -22.6655 H   0  0  0  0  0  0  0  0  0  0  0  0
   -3.6972    1.3790  -23.0409 H   0  0  0  0  0  0  0  0  0  0  0  0
   -2.4107    2.2999  -21.1176 H   0  0  0  0  0  0  0  0  0  0  0  0
   -3.0973    1.7460  -18.7983 H   0  0  0  0  0  0  0  0  0  0  0  0
   -4.6172    0.6014  -17.2482 H   0  0  0  0  0  0  0  0  0  0  0  0
   -7.7976   -1.6505  -18.5829 H   0  0  0  0  0  0  0  0  0  0  0  0
   -6.9821   -2.5704  -21.9702 C   0  0  0  0  0  0  0  0  0  0  0  0
   -8.3204   -3.1683  -22.4477 C   0  0  2  0  0  0  0  0  0  0  0  0
   -8.2154   -3.9743  -23.7391 C   0  0  0  0  0  0  0  0  0  0  0  0
   -7.2717   -5.4747  -23.5245 S   0  0  0  0  0  0  0  0  0  0  0  0
   -5.8688   -5.1116  -23.3748 O   0  0  0  0  0  0  0  0  0  0  0  0
   -7.9527   -6.2927  -22.5281 O   0  0  0  0  0  0  0  0  0  0  0  0
   -7.4308   -6.2336  -24.9894 N   0  0  0  0  0  0  0  0  0  0  0  0
   -8.6752   -6.9450  -25.2489 C   0  0  0  0  0  0  0  0  0  0  0  0
   -9.5096   -6.2902  -25.5432 H   0  0  0  0  0  0  0  0  0  0  0  0
   -8.5037   -7.6561  -26.0615 H   0  0  0  0  0  0  0  0  0  0  0  0
   -8.9555   -7.5053  -24.3547 H   0  0  0  0  0  0  0  0  0  0  0  0
   -6.7495   -5.6437  -26.1344 C   0  0  0  0  0  0  0  0  0  0  0  0
   -7.2877   -4.7940  -26.5824 H   0  0  0  0  0  0  0  0  0  0  0  0
   -6.6427   -6.4123  -26.9047 H   0  0  0  0  0  0  0  0  0  0  0  0
   -5.7495   -5.3207  -25.8358 H   0  0  0  0  0  0  0  0  0  0  0  0
   -9.2171   -4.2606  -24.0783 H   0  0  0  0  0  0  0  0  0  0  0  0
   -7.7194   -3.3860  -24.5207 H   0  0  0  0  0  0  0  0  0  0  0  0
   -8.6567   -3.8339  -21.6458 H   0  0  0  0  0  0  0  0  0  0  0  0
   -6.3502   -2.2566  -22.8149 H   0  0  0  0  0  0  0  0  0  0  0  0
   -6.3992   -3.2854  -21.3833 H   0  0  0  0  0  0  0  0  0  0  0  0
  -10.7851   -2.2912  -22.2860 C   0  0  0  0  0  0  0  0  0  0  0  0
  -11.2315   -3.4154  -21.5725 C   0  0  0  0  0  0  0  0  0  0  0  0
  -12.5583   -3.4817  -21.1766 C   0  0  0  0  0  0  0  0  0  0  0  0
  -12.9487   -4.3668  -20.2453 F   0  0  0  0  0  0  0  0  0  0  0  0
  -13.5276   -2.5976  -21.6181 C   0  0  0  0  0  0  0  0  0  0  0  0
  -13.1183   -1.5614  -22.4207 C   0  0  0  0  0  0  0  0  0  0  0  0
  -11.7679   -1.3817  -22.7108 C   0  0  0  0  0  0  0  0  0  0  0  0
  -11.4204   -0.1470  -23.4712 C   0  0  0  0  0  0  0  0  0  0  0  0
  -12.2429    0.7320  -23.6856 O   0  0  0  0  0  0  0  0  0  0  0  0
  -13.8296   -0.8607  -22.8352 H   0  0  0  0  0  0  0  0  0  0  0  0
  -14.5556   -2.7225  -21.2992 H   0  0  0  0  0  0  0  0  0  0  0  0
  -10.5591   -4.1852  -21.2131 H   0  0  0  0  0  0  0  0  0  0  0  0
   -9.5244   -1.9161  -24.7061 H   0  0  0  0  0  0  0  0  0  0  0  0
   -8.2287   -0.8667  -24.0812 H   0  0  0  0  0  0  0  0  0  0  0  0
   -9.3824    1.0269  -25.5275 H   0  0  0  0  0  0  0  0  0  0  0  0
  -10.5297    1.8591  -24.4707 H   0  0  0  0  0  0  0  0  0  0  0  0
   -9.6029    2.3297  -22.1070 H   0  0  0  0  0  0  0  0  0  0  0  0
   -7.9599    3.3511  -20.8594 H   0  0  0  0  0  0  0  0  0  0  0  0
   -6.9117    2.1053  -21.5608 H   0  0  0  0  0  0  0  0  0  0  0  0
   -7.0312    3.7254  -22.3150 H   0  0  0  0  0  0  0  0  0  0  0  0
  1  2  1  0
  2  3  1  0
  3  4  2  0
  3  5  1  0
  5  6  1  0
  6  7  1  0
  8  7  1  6
  8  9  1  0
  9 10  2  0
  9 11  1  0
 11 12  1  0
 12 13  2  0
 13 14  1  0
 14 15  2  0
 15 16  1  0
 16 17  2  0
 17 18  1  0
 18 19  2  0
 19 20  1  0
 20 21  2  0
 20 22  1  0
 19 23  1  0
 18 24  1  0
 17 25  1  0
 15 26  1  0
 13 27  1  0
 11 28  1  0
 28 29  1  0
 29 30  1  0
 30 31  1  0
 31 32  2  0
 31 33  2  0
 31 34  1  0
 34 35  1  0
 35 36  1  0
 35 37  1  0
 35 38  1  0
 34 39  1  0
 39 40  1  0
 39 41  1  0
 39 42  1  0
 30 43  1  0
 30 44  1  0
 29 45  1  1
 28 46  1  0
 28 47  1  0
  8 48  1  0
 48 49  2  0
 49 50  1  0
 50 51  1  0
 50 52  2  0
 52 53  1  0
 53 54  2  0
 54 55  1  0
 55 56  2  0
 53 57  1  0
 52 58  1  0
 49 59  1  0
  7 60  1  0
  7 61  1  0
  5 62  1  0
  5 63  1  0
  2 64  1  0
  1 65  1  0
  1 66  1  0
  1 67  1  0
 55  6  1  0
 29  8  1  0
 54 48  1  0
 21 12  1  0
 21 16  1  0
M  END
>  <cnnaffinities>  (40) 
[7.08752, 6.7443]

>  <score>  (40) 
7.08752

>  <index>  (40) 
41

>  <Smiles>  (40) 
C(N(C(=O)C(N1C([C@@]2(C(=O)N(c3c(nc(c4c(c(c(c(c34)[H])[H])[H])[H])[H])[H])C([C@@]2(C(S(=O)(=O)N(C([H])([H])[H])C([H])([H])[H])([H])[H])[H])([H])[H])c2c(c(F)c(c(c2C1=O)[H])[H])[H])([H])[H])([H])[H])[H])([H])([H])[H]

>  <h>  (40) 
<NA>

>  <Training>  (40) 
True

>  <Success>  (40) 
True

>  <enamine_searched>  (40) 
False

>  <enamine_id>  (40) 
nan

$$$$

     RDKit          3D

 67 72  0  0  0  0  0  0  0  0999 V2000
   -7.4050    3.3584  -21.7428 C   0  0  0  0  0  0  0  0  0  0  0  0
   -8.2487    2.9043  -22.8316 N   0  0  0  0  0  0  0  0  0  0  0  0
   -7.6795    2.2469  -23.8632 C   0  0  0  0  0  0  0  0  0  0  0  0
   -6.4649    2.1507  -23.9896 O   0  0  0  0  0  0  0  0  0  0  0  0
   -8.6380    1.6381  -24.8958 C   0  0  0  0  0  0  0  0  0  0  0  0
   -9.3631    0.4798  -24.4027 N   0  0  0  0  0  0  0  0  0  0  0  0
   -8.6427   -0.7717  -24.2478 C   0  0  0  0  0  0  0  0  0  0  0  0
   -9.0341   -1.5044  -22.9377 C   0  0  2  0  0  0  0  0  0  0  0  0
   -8.4961   -0.7228  -21.7091 C   0  0  0  0  0  0  0  0  0  0  0  0
   -8.9430    0.3041  -21.2409 O   0  0  0  0  0  0  0  0  0  0  0  0
   -7.3993   -1.3859  -21.2060 N   0  0  0  0  0  0  0  0  0  0  0  0
   -6.6022   -0.8107  -20.1784 C   0  0  0  0  0  0  0  0  0  0  0  0
   -6.9063   -1.0419  -18.8615 C   0  0  0  0  0  0  0  0  0  0  0  0
   -6.1995   -0.5465  -17.8181 N   0  0  0  0  0  0  0  0  0  0  0  0
   -5.1649    0.2096  -18.0813 C   0  0  0  0  0  0  0  0  0  0  0  0
   -4.7282    0.5329  -19.3967 C   0  0  0  0  0  0  0  0  0  0  0  0
   -3.6009    1.3657  -19.6413 C   0  0  0  0  0  0  0  0  0  0  0  0
   -3.2150    1.6559  -20.9209 C   0  0  0  0  0  0  0  0  0  0  0  0
   -3.9382    1.1263  -22.0131 C   0  0  0  0  0  0  0  0  0  0  0  0
   -5.0311    0.3198  -21.8016 C   0  0  0  0  0  0  0  0  0  0  0  0
   -5.4635    0.0033  -20.4858 C   0  0  0  0  0  0  0  0  0  0  0  0
   -5.5871   -0.0686  -22.6509 H   0  0  0  0  0  0  0  0  0  0  0  0
   -3.6488    1.3656  -23.0304 H   0  0  0  0  0  0  0  0  0  0  0  0
   -2.3627    2.3066  -21.1014 H   0  0  0  0  0  0  0  0  0  0  0  0
   -3.0696    1.7726  -18.7845 H   0  0  0  0  0  0  0  0  0  0  0  0
   -4.6170    0.6123  -17.2290 H   0  0  0  0  0  0  0  0  0  0  0  0
   -7.7576   -1.6667  -18.6014 H   0  0  0  0  0  0  0  0  0  0  0  0
   -7.0437   -2.5884  -21.9299 C   0  0  0  0  0  0  0  0  0  0  0  0
   -8.2893   -2.8716  -22.7936 C   0  0  2  0  0  0  0  0  0  0  0  0
   -7.9209   -3.6301  -24.0892 C   0  0  0  0  0  0  0  0  0  0  0  0
   -7.3802   -4.9377  -23.8032 N   0  0  0  0  0  0  0  0  0  0  0  0
   -6.0600   -5.2838  -23.8090 C   0  0  0  0  0  0  0  0  0  0  0  0
   -4.8011   -4.2318  -24.4222 S   0  0  0  0  0  0  0  0  0  0  0  0
   -3.6510   -5.4716  -23.9953 C   0  0  0  0  0  0  0  0  0  0  0  0
   -4.1440   -6.5384  -23.4691 N   0  0  0  0  0  0  0  0  0  0  0  0
   -5.5212   -6.4586  -23.3632 C   0  0  0  0  0  0  0  0  0  0  0  0
   -6.3048   -7.6039  -22.7841 C   0  0  0  0  0  0  0  0  0  0  0  0
   -7.0267   -8.0122  -23.5048 H   0  0  0  0  0  0  0  0  0  0  0  0
   -6.8640   -7.3001  -21.8884 H   0  0  0  0  0  0  0  0  0  0  0  0
   -5.6178   -8.4063  -22.5002 H   0  0  0  0  0  0  0  0  0  0  0  0
   -2.5925   -5.3133  -24.1812 H   0  0  0  0  0  0  0  0  0  0  0  0
   -8.0166   -5.6605  -23.5034 H   0  0  0  0  0  0  0  0  0  0  0  0
   -8.8147   -3.7740  -24.7055 H   0  0  0  0  0  0  0  0  0  0  0  0
   -7.1780   -3.0696  -24.6756 H   0  0  0  0  0  0  0  0  0  0  0  0
   -8.9560   -3.5248  -22.2215 H   0  0  0  0  0  0  0  0  0  0  0  0
   -6.1495   -2.4322  -22.5529 H   0  0  0  0  0  0  0  0  0  0  0  0
   -6.8134   -3.4116  -21.2427 H   0  0  0  0  0  0  0  0  0  0  0  0
  -10.5533   -1.5504  -22.8642 C   0  0  0  0  0  0  0  0  0  0  0  0
  -11.1908   -2.4316  -21.9817 C   0  0  0  0  0  0  0  0  0  0  0  0
  -12.5708   -2.4539  -21.8970 C   0  0  0  0  0  0  0  0  0  0  0  0
  -13.3469   -3.5642  -20.8049 Cl  0  0  0  0  0  0  0  0  0  0  0  0
  -13.3611   -1.5943  -22.6593 C   0  0  0  0  0  0  0  0  0  0  0  0
  -12.7392   -0.6703  -23.4741 C   0  0  0  0  0  0  0  0  0  0  0  0
  -11.3472   -0.6215  -23.5546 C   0  0  0  0  0  0  0  0  0  0  0  0
  -10.7306    0.5137  -24.3223 C   0  0  0  0  0  0  0  0  0  0  0  0
  -11.4055    1.4131  -24.7988 O   0  0  0  0  0  0  0  0  0  0  0  0
  -13.3045    0.0559  -24.0488 H   0  0  0  0  0  0  0  0  0  0  0  0
  -14.4409   -1.6412  -22.5814 H   0  0  0  0  0  0  0  0  0  0  0  0
  -10.6237   -3.0869  -21.3311 H   0  0  0  0  0  0  0  0  0  0  0  0
   -7.5760   -0.5271  -24.2270 H   0  0  0  0  0  0  0  0  0  0  0  0
   -8.8436   -1.4343  -25.1063 H   0  0  0  0  0  0  0  0  0  0  0  0
   -8.0065    1.3748  -25.7519 H   0  0  0  0  0  0  0  0  0  0  0  0
   -9.4059    2.3505  -25.2121 H   0  0  0  0  0  0  0  0  0  0  0  0
   -9.2479    2.8472  -22.6878 H   0  0  0  0  0  0  0  0  0  0  0  0
   -6.8095    2.5275  -21.3357 H   0  0  0  0  0  0  0  0  0  0  0  0
   -6.7198    4.1447  -22.0792 H   0  0  0  0  0  0  0  0  0  0  0  0
   -8.0594    3.7648  -20.9823 H   0  0  0  0  0  0  0  0  0  0  0  0
  1  2  1  0
  2  3  1  0
  3  4  2  0
  3  5  1  0
  5  6  1  0
  6  7  1  0
  8  7  1  6
  8  9  1  0
  9 10  2  0
  9 11  1  0
 11 12  1  0
 12 13  2  0
 13 14  1  0
 14 15  2  0
 15 16  1  0
 16 17  2  0
 17 18  1  0
 18 19  2  0
 19 20  1  0
 20 21  2  0
 20 22  1  0
 19 23  1  0
 18 24  1  0
 17 25  1  0
 15 26  1  0
 13 27  1  0
 11 28  1  0
 28 29  1  0
 29 30  1  0
 30 31  1  0
 31 32  1  0
 32 33  1  0
 33 34  1  0
 34 35  2  0
 35 36  1  0
 36 37  1  0
 37 38  1  0
 37 39  1  0
 37 40  1  0
 34 41  1  0
 31 42  1  0
 30 43  1  0
 30 44  1  0
 29 45  1  1
 28 46  1  0
 28 47  1  0
  8 48  1  0
 48 49  2  0
 49 50  1  0
 50 51  1  0
 50 52  2  0
 52 53  1  0
 53 54  2  0
 54 55  1  0
 55 56  2  0
 53 57  1  0
 52 58  1  0
 49 59  1  0
  7 60  1  0
  7 61  1  0
  5 62  1  0
  5 63  1  0
  2 64  1  0
  1 65  1  0
  1 66  1  0
  1 67  1  0
 55  6  1  0
 29  8  1  0
 36 32  2  0
 54 48  1  0
 21 12  1  0
 21 16  1  0
M  END
>  <cnnaffinities>  (41) 
[7.23489]

>  <score>  (41) 
7.23489

>  <index>  (41) 
43

>  <Smiles>  (41) 
C(N(C(=O)C(N1C([C@@]2(C(=O)N(c3c(nc(c4c(c(c(c(c34)[H])[H])[H])[H])[H])[H])C([C@@]2(C(N(c2sc(nc2C([H])([H])[H])[H])[H])([H])[H])[H])([H])[H])c2c(c(Cl)c(c(c2C1=O)[H])[H])[H])([H])[H])([H])[H])[H])([H])([H])[H]

>  <h>  (41) 
<NA>

>  <Training>  (41) 
True

>  <Success>  (41) 
True

>  <enamine_searched>  (41) 
False

>  <enamine_id>  (41) 
nan

$$$$

     RDKit          3D

 60 64  0  0  0  0  0  0  0  0999 V2000
  -14.9041   -2.1144  -23.9507 C   0  0  0  0  0  0  0  0  0  0  0  0
  -13.9690   -3.0424  -23.3695 N   0  0  0  0  0  0  0  0  0  0  0  0
  -13.1999   -2.7011  -22.3011 C   0  0  0  0  0  0  0  0  0  0  0  0
  -13.1423   -1.5690  -21.8408 O   0  0  0  0  0  0  0  0  0  0  0  0
  -12.3981   -3.8715  -21.7551 C   0  0  0  0  0  0  0  0  0  0  0  0
  -11.0535   -3.8975  -22.3009 N   0  0  0  0  0  0  0  0  0  0  0  0
   -9.9312   -3.3586  -21.5370 C   0  0  0  0  0  0  0  0  0  0  0  0
   -8.7450   -2.8880  -22.4118 C   0  0  2  0  0  0  0  0  0  0  0  0
   -7.5417   -2.6744  -21.4787 C   0  0  0  0  0  0  0  0  0  0  0  0
   -6.8109   -3.5243  -21.0062 O   0  0  0  0  0  0  0  0  0  0  0  0
   -7.3954   -1.3241  -21.2457 N   0  0  0  0  0  0  0  0  0  0  0  0
   -6.5778   -0.8423  -20.1988 C   0  0  0  0  0  0  0  0  0  0  0  0
   -6.8847   -1.1105  -18.8896 C   0  0  0  0  0  0  0  0  0  0  0  0
   -6.2116   -0.5797  -17.8400 N   0  0  0  0  0  0  0  0  0  0  0  0
   -5.2006    0.2104  -18.0979 C   0  0  0  0  0  0  0  0  0  0  0  0
   -4.7519    0.5326  -19.4111 C   0  0  0  0  0  0  0  0  0  0  0  0
   -3.6259    1.3608  -19.6498 C   0  0  0  0  0  0  0  0  0  0  0  0
   -3.2231    1.6222  -20.9307 C   0  0  0  0  0  0  0  0  0  0  0  0
   -3.9199    1.0681  -22.0290 C   0  0  0  0  0  0  0  0  0  0  0  0
   -5.0141    0.2643  -21.8252 C   0  0  0  0  0  0  0  0  0  0  0  0
   -5.4564   -0.0125  -20.5042 C   0  0  0  0  0  0  0  0  0  0  0  0
   -5.5414   -0.1811  -22.6645 H   0  0  0  0  0  0  0  0  0  0  0  0
   -3.5869    1.2734  -23.0417 H   0  0  0  0  0  0  0  0  0  0  0  0
   -2.3620    2.2580  -21.1132 H   0  0  0  0  0  0  0  0  0  0  0  0
   -3.0983    1.7708  -18.7939 H   0  0  0  0  0  0  0  0  0  0  0  0
   -4.6702    0.6320  -17.2442 H   0  0  0  0  0  0  0  0  0  0  0  0
   -7.7182   -1.7652  -18.6386 H   0  0  0  0  0  0  0  0  0  0  0  0
   -8.3953   -0.4964  -21.8967 C   0  0  0  0  0  0  0  0  0  0  0  0
   -8.9617   -1.4389  -22.9710 C   0  0  2  0  0  0  0  0  0  0  0  0
  -10.4008   -1.1193  -23.3350 C   0  0  0  0  0  0  0  0  0  0  0  0
  -10.5066    0.1436  -23.9490 O   0  0  0  0  0  0  0  0  0  0  0  0
  -11.8614    0.3577  -24.2775 C   0  0  0  0  0  0  0  0  0  0  0  0
  -12.4976    0.3311  -23.3793 H   0  0  0  0  0  0  0  0  0  0  0  0
  -12.2107   -0.4343  -24.9592 H   0  0  0  0  0  0  0  0  0  0  0  0
  -11.9538    1.3235  -24.7781 H   0  0  0  0  0  0  0  0  0  0  0  0
  -10.7727   -1.8956  -24.0213 H   0  0  0  0  0  0  0  0  0  0  0  0
  -11.0397   -1.1286  -22.4381 H   0  0  0  0  0  0  0  0  0  0  0  0
   -8.3467   -1.3498  -23.8747 H   0  0  0  0  0  0  0  0  0  0  0  0
   -9.1670   -0.1633  -21.1827 H   0  0  0  0  0  0  0  0  0  0  0  0
   -7.9493    0.4086  -22.3211 H   0  0  0  0  0  0  0  0  0  0  0  0
   -8.4772   -3.9349  -23.4702 C   0  0  0  0  0  0  0  0  0  0  0  0
   -7.2038   -4.0897  -24.0328 C   0  0  0  0  0  0  0  0  0  0  0  0
   -6.9946   -5.0476  -25.0105 C   0  0  0  0  0  0  0  0  0  0  0  0
   -5.4063   -5.2266  -25.7054 Cl  0  0  0  0  0  0  0  0  0  0  0  0
   -8.0195   -5.8972  -25.4280 C   0  0  0  0  0  0  0  0  0  0  0  0
   -9.2854   -5.7241  -24.9047 C   0  0  0  0  0  0  0  0  0  0  0  0
   -9.5148   -4.7411  -23.9502 C   0  0  0  0  0  0  0  0  0  0  0  0
  -10.9089   -4.5672  -23.4732 C   0  0  0  0  0  0  0  0  0  0  0  0
  -11.8810   -5.0112  -24.0899 O   0  0  0  0  0  0  0  0  0  0  0  0
  -10.1257   -6.3375  -25.2175 H   0  0  0  0  0  0  0  0  0  0  0  0
   -7.8227   -6.6805  -26.1484 H   0  0  0  0  0  0  0  0  0  0  0  0
   -6.3668   -3.4989  -23.6773 H   0  0  0  0  0  0  0  0  0  0  0  0
   -9.5632   -4.1108  -20.8420 H   0  0  0  0  0  0  0  0  0  0  0  0
  -10.2533   -2.5000  -20.9370 H   0  0  0  0  0  0  0  0  0  0  0  0
  -12.9349   -4.7563  -22.0883 H   0  0  0  0  0  0  0  0  0  0  0  0
  -12.3516   -3.8458  -20.6706 H   0  0  0  0  0  0  0  0  0  0  0  0
  -13.6709   -3.8231  -23.9363 H   0  0  0  0  0  0  0  0  0  0  0  0
  -15.4399   -1.6036  -23.1499 H   0  0  0  0  0  0  0  0  0  0  0  0
  -15.6089   -2.6642  -24.5794 H   0  0  0  0  0  0  0  0  0  0  0  0
  -14.4168   -1.3444  -24.5559 H   0  0  0  0  0  0  0  0  0  0  0  0
  1  2  1  0
  2  3  1  0
  3  4  2  0
  3  5  1  0
  5  6  1  0
  6  7  1  0
  8  7  1  1
  8  9  1  0
  9 10  2  0
  9 11  1  0
 11 12  1  0
 12 13  2  0
 13 14  1  0
 14 15  2  0
 15 16  1  0
 16 17  2  0
 17 18  1  0
 18 19  2  0
 19 20  1  0
 20 21  2  0
 20 22  1  0
 19 23  1  0
 18 24  1  0
 17 25  1  0
 15 26  1  0
 13 27  1  0
 11 28  1  0
 28 29  1  0
 29 30  1  0
 30 31  1  0
 31 32  1  0
 32 33  1  0
 32 34  1  0
 32 35  1  0
 30 36  1  0
 30 37  1  0
 29 38  1  6
 28 39  1  0
 28 40  1  0
  8 41  1  0
 41 42  2  0
 42 43  1  0
 43 44  1  0
 43 45  2  0
 45 46  1  0
 46 47  2  0
 47 48  1  0
 48 49  2  0
 46 50  1  0
 45 51  1  0
 42 52  1  0
  7 53  1  0
  7 54  1  0
  5 55  1  0
  5 56  1  0
  2 57  1  0
  1 58  1  0
  1 59  1  0
  1 60  1  0
 48  6  1  0
 29  8  1  0
 47 41  1  0
 21 12  1  0
 21 16  1  0
M  END
>  <cnnaffinities>  (42) 
[6.61864]

>  <score>  (42) 
6.61864

>  <index>  (42) 
44

>  <Smiles>  (42) 
C(N(C(=O)C(N1C([C@@]2(C(=O)N(c3c(nc(c4c(c(c(c(c34)[H])[H])[H])[H])[H])[H])C([C@@]2(C(OC([H])([H])[H])([H])[H])[H])([H])[H])c2c(c(Cl)c(c(c2C1=O)[H])[H])[H])([H])[H])([H])[H])[H])([H])([H])[H]

>  <h>  (42) 
<NA>

>  <Training>  (42) 
True

>  <Success>  (42) 
True

>  <enamine_searched>  (42) 
False

>  <enamine_id>  (42) 
nan

$$$$

     RDKit          3D

 66 71  0  0  0  0  0  0  0  0999 V2000
   -7.4395    3.3251  -21.7331 C   0  0  0  0  0  0  0  0  0  0  0  0
   -8.3068    2.8722  -22.8040 N   0  0  0  0  0  0  0  0  0  0  0  0
   -7.7447    2.2111  -23.8395 C   0  0  0  0  0  0  0  0  0  0  0  0
   -6.5304    2.1195  -23.9743 O   0  0  0  0  0  0  0  0  0  0  0  0
   -8.7007    1.5930  -24.8645 C   0  0  0  0  0  0  0  0  0  0  0  0
   -9.4197    0.4368  -24.3645 N   0  0  0  0  0  0  0  0  0  0  0  0
   -8.6945   -0.8094  -24.2067 C   0  0  0  0  0  0  0  0  0  0  0  0
   -9.0736   -1.5291  -22.8879 C   0  0  2  0  0  0  0  0  0  0  0  0
   -8.5248   -0.7421  -21.6694 C   0  0  0  0  0  0  0  0  0  0  0  0
   -8.9855    0.2714  -21.1805 O   0  0  0  0  0  0  0  0  0  0  0  0
   -7.3987   -1.3818  -21.2039 N   0  0  0  0  0  0  0  0  0  0  0  0
   -6.6016   -0.8106  -20.1756 C   0  0  0  0  0  0  0  0  0  0  0  0
   -6.9077   -1.0418  -18.8593 C   0  0  0  0  0  0  0  0  0  0  0  0
   -6.2001   -0.5465  -17.8162 N   0  0  0  0  0  0  0  0  0  0  0  0
   -5.1654    0.2088  -18.0821 C   0  0  0  0  0  0  0  0  0  0  0  0
   -4.7287    0.5321  -19.3970 C   0  0  0  0  0  0  0  0  0  0  0  0
   -3.6024    1.3659  -19.6427 C   0  0  0  0  0  0  0  0  0  0  0  0
   -3.2171    1.6576  -20.9219 C   0  0  0  0  0  0  0  0  0  0  0  0
   -3.9408    1.1284  -22.0144 C   0  0  0  0  0  0  0  0  0  0  0  0
   -5.0331    0.3205  -21.8022 C   0  0  0  0  0  0  0  0  0  0  0  0
   -5.4640    0.0020  -20.4868 C   0  0  0  0  0  0  0  0  0  0  0  0
   -5.5903   -0.0647  -22.6520 H   0  0  0  0  0  0  0  0  0  0  0  0
   -3.6522    1.3690  -23.0319 H   0  0  0  0  0  0  0  0  0  0  0  0
   -2.3660    2.3099  -21.1016 H   0  0  0  0  0  0  0  0  0  0  0  0
   -3.0716    1.7724  -18.7849 H   0  0  0  0  0  0  0  0  0  0  0  0
   -4.6167    0.6115  -17.2293 H   0  0  0  0  0  0  0  0  0  0  0  0
   -7.7592   -1.6655  -18.5988 H   0  0  0  0  0  0  0  0  0  0  0  0
   -7.0550   -2.5870  -21.9321 C   0  0  0  0  0  0  0  0  0  0  0  0
   -8.3249   -2.8941  -22.7510 C   0  0  2  0  0  0  0  0  0  0  0  0
   -8.0184   -3.6737  -24.0490 C   0  0  0  0  0  0  0  0  0  0  0  0
   -7.4766   -5.0622  -23.7777 C   0  0  0  0  0  0  0  0  0  0  0  0
   -8.3519   -6.1165  -23.5010 C   0  0  0  0  0  0  0  0  0  0  0  0
   -7.8738   -7.3921  -23.2109 C   0  0  0  0  0  0  0  0  0  0  0  0
   -6.5022   -7.6354  -23.1913 C   0  0  0  0  0  0  0  0  0  0  0  0
   -5.6173   -6.5960  -23.4689 C   0  0  0  0  0  0  0  0  0  0  0  0
   -6.1026   -5.3213  -23.7571 C   0  0  0  0  0  0  0  0  0  0  0  0
   -5.4033   -4.5119  -23.9682 H   0  0  0  0  0  0  0  0  0  0  0  0
   -4.5442   -6.7806  -23.4617 H   0  0  0  0  0  0  0  0  0  0  0  0
   -6.1236   -8.6310  -22.9648 H   0  0  0  0  0  0  0  0  0  0  0  0
   -8.5766   -8.1969  -23.0019 H   0  0  0  0  0  0  0  0  0  0  0  0
   -9.4250   -5.9264  -23.5140 H   0  0  0  0  0  0  0  0  0  0  0  0
   -8.9365   -3.7518  -24.6491 H   0  0  0  0  0  0  0  0  0  0  0  0
   -7.2899   -3.1129  -24.6511 H   0  0  0  0  0  0  0  0  0  0  0  0
   -8.9703   -3.5342  -22.1436 H   0  0  0  0  0  0  0  0  0  0  0  0
   -6.7948   -3.4018  -21.2456 H   0  0  0  0  0  0  0  0  0  0  0  0
   -6.1807   -2.4237  -22.5840 H   0  0  0  0  0  0  0  0  0  0  0  0
  -10.5903   -1.5903  -22.8101 C   0  0  0  0  0  0  0  0  0  0  0  0
  -11.2160   -2.4904  -21.9391 C   0  0  0  0  0  0  0  0  0  0  0  0
  -12.5950   -2.5172  -21.8436 C   0  0  0  0  0  0  0  0  0  0  0  0
  -13.3608   -3.6345  -20.7518 Cl  0  0  0  0  0  0  0  0  0  0  0  0
  -13.3928   -1.6536  -22.5943 C   0  0  0  0  0  0  0  0  0  0  0  0
  -12.7832   -0.7211  -23.4092 C   0  0  0  0  0  0  0  0  0  0  0  0
  -11.3925   -0.6653  -23.4951 C   0  0  0  0  0  0  0  0  0  0  0  0
  -10.7858    0.4690  -24.2668 C   0  0  0  0  0  0  0  0  0  0  0  0
  -11.4694    1.3715  -24.7361 O   0  0  0  0  0  0  0  0  0  0  0  0
  -13.3507    0.0071  -23.9810 H   0  0  0  0  0  0  0  0  0  0  0  0
  -14.4715   -1.7060  -22.5095 H   0  0  0  0  0  0  0  0  0  0  0  0
  -10.6371   -3.1576  -21.3110 H   0  0  0  0  0  0  0  0  0  0  0  0
   -8.9046   -1.4837  -25.0538 H   0  0  0  0  0  0  0  0  0  0  0  0
   -7.6290   -0.5599  -24.2007 H   0  0  0  0  0  0  0  0  0  0  0  0
   -9.4770    2.2951  -25.1782 H   0  0  0  0  0  0  0  0  0  0  0  0
   -8.0687    1.3229  -25.7193 H   0  0  0  0  0  0  0  0  0  0  0  0
   -9.2995    2.7938  -22.6462 H   0  0  0  0  0  0  0  0  0  0  0  0
   -6.7645    4.1095  -22.0878 H   0  0  0  0  0  0  0  0  0  0  0  0
   -8.0691    3.7257  -20.9501 H   0  0  0  0  0  0  0  0  0  0  0  0
   -6.8334    2.4922  -21.3538 H   0  0  0  0  0  0  0  0  0  0  0  0
  1  2  1  0
  2  3  1  0
  3  4  2  0
  3  5  1  0
  5  6  1  0
  6  7  1  0
  8  7  1  6
  8  9  1  0
  9 10  2  0
  9 11  1  0
 11 12  1  0
 12 13  2  0
 13 14  1  0
 14 15  2  0
 15 16  1  0
 16 17  2  0
 17 18  1  0
 18 19  2  0
 19 20  1  0
 20 21  2  0
 20 22  1  0
 19 23  1  0
 18 24  1  0
 17 25  1  0
 15 26  1  0
 13 27  1  0
 11 28  1  0
 28 29  1  0
 29 30  1  0
 30 31  1  0
 31 32  2  0
 32 33  1  0
 33 34  2  0
 34 35  1  0
 35 36  2  0
 36 37  1  0
 35 38  1  0
 34 39  1  0
 33 40  1  0
 32 41  1  0
 30 42  1  0
 30 43  1  0
 29 44  1  1
 28 45  1  0
 28 46  1  0
  8 47  1  0
 47 48  2  0
 48 49  1  0
 49 50  1  0
 49 51  2  0
 51 52  1  0
 52 53  2  0
 53 54  1  0
 54 55  2  0
 52 56  1  0
 51 57  1  0
 48 58  1  0
  7 59  1  0
  7 60  1  0
  5 61  1  0
  5 62  1  0
  2 63  1  0
  1 64  1  0
  1 65  1  0
  1 66  1  0
 54  6  1  0
 29  8  1  0
 36 31  1  0
 53 47  1  0
 21 12  1  0
 21 16  1  0
M  END
>  <cnnaffinities>  (43) 
[6.92304, 6.90806]

>  <score>  (43) 
6.92304

>  <index>  (43) 
45

>  <Smiles>  (43) 
C(N(C(=O)C(N1C([C@@]2(C(=O)N(c3c(nc(c4c(c(c(c(c34)[H])[H])[H])[H])[H])[H])C([C@@]2(C(c2c(c(c(c(c2[H])[H])[H])[H])[H])([H])[H])[H])([H])[H])c2c(c(Cl)c(c(c2C1=O)[H])[H])[H])([H])[H])([H])[H])[H])([H])([H])[H]

>  <h>  (43) 
<NA>

>  <Training>  (43) 
True

>  <Success>  (43) 
True

>  <enamine_searched>  (43) 
False

>  <enamine_id>  (43) 
nan

$$$$

     RDKit          3D

 50 54  0  0  0  0  0  0  0  0999 V2000
  -10.4362   -1.1216  -23.2998 C   0  0  0  0  0  0  0  0  0  0  0  0
   -8.9926   -1.4636  -22.9564 C   0  0  1  0  0  0  0  0  0  0  0  0
   -8.3905   -0.5128  -21.9092 C   0  0  0  0  0  0  0  0  0  0  0  0
   -7.3952   -1.3373  -21.2403 N   0  0  0  0  0  0  0  0  0  0  0  0
   -6.5782   -0.8435  -20.1963 C   0  0  0  0  0  0  0  0  0  0  0  0
   -6.8832   -1.0958  -18.8805 C   0  0  0  0  0  0  0  0  0  0  0  0
   -6.2084   -0.5660  -17.8315 N   0  0  0  0  0  0  0  0  0  0  0  0
   -5.1923    0.2151  -18.0948 C   0  0  0  0  0  0  0  0  0  0  0  0
   -4.7456    0.5264  -19.4115 C   0  0  0  0  0  0  0  0  0  0  0  0
   -3.6181    1.3521  -19.6459 C   0  0  0  0  0  0  0  0  0  0  0  0
   -3.2158    1.6160  -20.9261 C   0  0  0  0  0  0  0  0  0  0  0  0
   -3.9164    1.0678  -22.0239 C   0  0  0  0  0  0  0  0  0  0  0  0
   -5.0118    0.2654  -21.8223 C   0  0  0  0  0  0  0  0  0  0  0  0
   -5.4563   -0.0142  -20.5025 C   0  0  0  0  0  0  0  0  0  0  0  0
   -5.5332   -0.1712  -22.6675 H   0  0  0  0  0  0  0  0  0  0  0  0
   -3.5856    1.2814  -23.0347 H   0  0  0  0  0  0  0  0  0  0  0  0
   -2.3600    2.2576  -21.1071 H   0  0  0  0  0  0  0  0  0  0  0  0
   -3.0915    1.7643  -18.7903 H   0  0  0  0  0  0  0  0  0  0  0  0
   -4.6546    0.6343  -17.2458 H   0  0  0  0  0  0  0  0  0  0  0  0
   -7.7240   -1.7393  -18.6346 H   0  0  0  0  0  0  0  0  0  0  0  0
   -7.5543   -2.6891  -21.4644 C   0  0  0  0  0  0  0  0  0  0  0  0
   -6.8141   -3.5520  -21.0343 O   0  0  0  0  0  0  0  0  0  0  0  0
   -8.7844   -2.8996  -22.3557 C   0  0  1  0  0  0  0  0  0  0  0  0
   -9.9782   -3.3367  -21.4749 C   0  0  0  0  0  0  0  0  0  0  0  0
  -11.1196   -3.7385  -22.2894 N   0  0  0  0  0  0  0  0  0  0  0  0
  -12.4812   -3.5318  -21.8476 C   0  0  0  0  0  0  0  0  0  0  0  0
  -13.3162   -2.6969  -22.7273 C   0  0  0  0  0  0  0  0  0  0  0  0
  -14.0528   -2.0284  -23.3199 N   0  0  0  0  0  0  0  0  0  0  0  0
  -12.5011   -3.0655  -20.8652 H   0  0  0  0  0  0  0  0  0  0  0  0
  -12.9810   -4.4892  -21.7790 H   0  0  0  0  0  0  0  0  0  0  0  0
  -10.9719   -4.5610  -23.3778 C   0  0  0  0  0  0  0  0  0  0  0  0
  -11.9239   -5.0608  -23.9535 O   0  0  0  0  0  0  0  0  0  0  0  0
   -9.5736   -4.7849  -23.8432 C   0  0  0  0  0  0  0  0  0  0  0  0
   -9.3357   -5.7866  -24.7868 C   0  0  0  0  0  0  0  0  0  0  0  0
   -8.0793   -5.9427  -25.3463 C   0  0  0  0  0  0  0  0  0  0  0  0
   -7.0693   -5.0797  -24.9299 C   0  0  0  0  0  0  0  0  0  0  0  0
   -5.8528   -5.1931  -25.4899 F   0  0  0  0  0  0  0  0  0  0  0  0
   -7.2650   -4.1185  -23.9578 C   0  0  0  0  0  0  0  0  0  0  0  0
   -8.5351   -3.9696  -23.3897 C   0  0  0  0  0  0  0  0  0  0  0  0
   -6.4255   -3.5120  -23.6315 H   0  0  0  0  0  0  0  0  0  0  0  0
   -7.8683   -6.7018  -26.0965 H   0  0  0  0  0  0  0  0  0  0  0  0
  -10.1558   -6.4320  -25.0854 H   0  0  0  0  0  0  0  0  0  0  0  0
   -9.6713   -4.1673  -20.8247 H   0  0  0  0  0  0  0  0  0  0  0  0
  -10.2576   -2.4697  -20.8652 H   0  0  0  0  0  0  0  0  0  0  0  0
   -9.1606   -0.1590  -21.2008 H   0  0  0  0  0  0  0  0  0  0  0  0
   -7.9275    0.3695  -22.3666 H   0  0  0  0  0  0  0  0  0  0  0  0
   -8.3756   -1.4267  -23.8668 H   0  0  0  0  0  0  0  0  0  0  0  0
  -10.5210   -0.1453  -23.7820 H   0  0  0  0  0  0  0  0  0  0  0  0
  -11.0386   -1.1098  -22.3836 H   0  0  0  0  0  0  0  0  0  0  0  0
  -10.8548   -1.8863  -23.9598 H   0  0  0  0  0  0  0  0  0  0  0  0
  1  2  1  0
  2  3  1  0
  3  4  1  0
  4  5  1  0
  5  6  2  0
  6  7  1  0
  7  8  2  0
  8  9  1  0
  9 10  2  0
 10 11  1  0
 11 12  2  0
 12 13  1  0
 13 14  2  0
 13 15  1  0
 12 16  1  0
 11 17  1  0
 10 18  1  0
  8 19  1  0
  6 20  1  0
  4 21  1  0
 21 22  2  0
 21 23  1  0
 23 24  1  1
 24 25  1  0
 25 26  1  0
 26 27  1  0
 27 28  3  0
 26 29  1  0
 26 30  1  0
 25 31  1  0
 31 32  2  0
 31 33  1  0
 33 34  2  0
 34 35  1  0
 35 36  2  0
 36 37  1  0
 36 38  1  0
 38 39  2  0
 38 40  1  0
 35 41  1  0
 34 42  1  0
 24 43  1  0
 24 44  1  0
  3 45  1  0
  3 46  1  0
  2 47  1  6
  1 48  1  0
  1 49  1  0
  1 50  1  0
 23  2  1  0
 39 33  1  0
 14  5  1  0
 39 23  1  0
 14  9  1  0
M  END
>  <cnnaffinities>  (44) 
[6.55157]

>  <score>  (44) 
6.55157

>  <index>  (44) 
46

>  <Smiles>  (44) 
C([C@]1(C(N(c2c(nc(c3c(c(c(c(c23)[H])[H])[H])[H])[H])[H])C(=O)[C@]21C(N(C(C#N)([H])[H])C(=O)c1c(c(c(F)c(c21)[H])[H])[H])([H])[H])([H])[H])[H])([H])([H])[H]

>  <h>  (44) 
<NA>

>  <Training>  (44) 
True

>  <Success>  (44) 
True

>  <enamine_searched>  (44) 
False

>  <enamine_id>  (44) 
nan

$$$$

     RDKit          3D

 58 63  0  0  0  0  0  0  0  0999 V2000
   -9.0664    0.2936  -20.9329 O   0  0  0  0  0  0  0  0  0  0  0  0
   -8.5081   -0.4104  -21.7469 C   0  0  0  0  0  0  0  0  0  0  0  0
   -7.4367   -1.4239  -21.2729 C   0  0  0  0  0  0  0  0  0  0  0  0
   -6.5732   -0.8322  -20.1763 C   0  0  0  0  0  0  0  0  0  0  0  0
   -6.8738   -1.0414  -18.8567 C   0  0  0  0  0  0  0  0  0  0  0  0
   -6.1852   -0.5320  -17.7994 N   0  0  0  0  0  0  0  0  0  0  0  0
   -5.1529    0.2230  -18.0658 C   0  0  0  0  0  0  0  0  0  0  0  0
   -4.7171    0.5354  -19.3810 C   0  0  0  0  0  0  0  0  0  0  0  0
   -3.5866    1.3591  -19.6214 C   0  0  0  0  0  0  0  0  0  0  0  0
   -3.1859    1.6316  -20.8974 C   0  0  0  0  0  0  0  0  0  0  0  0
   -3.9001    1.0913  -21.9901 C   0  0  0  0  0  0  0  0  0  0  0  0
   -5.0131    0.3157  -21.7858 C   0  0  0  0  0  0  0  0  0  0  0  0
   -5.4485    0.0013  -20.4732 C   0  0  0  0  0  0  0  0  0  0  0  0
   -5.5640   -0.0631  -22.6411 H   0  0  0  0  0  0  0  0  0  0  0  0
   -3.5782    1.3177  -23.0060 H   0  0  0  0  0  0  0  0  0  0  0  0
   -2.3222    2.2676  -21.0805 H   0  0  0  0  0  0  0  0  0  0  0  0
   -3.0505    1.7691  -18.7682 H   0  0  0  0  0  0  0  0  0  0  0  0
   -4.5986    0.6283  -17.2161 H   0  0  0  0  0  0  0  0  0  0  0  0
   -7.7299   -1.6591  -18.5807 H   0  0  0  0  0  0  0  0  0  0  0  0
   -6.8120   -1.7798  -22.0983 H   0  0  0  0  0  0  0  0  0  0  0  0
   -7.9733   -2.2925  -20.8621 H   0  0  0  0  0  0  0  0  0  0  0  0
   -8.8003   -0.2909  -23.1068 N   0  0  0  0  0  0  0  0  0  0  0  0
   -9.1081    1.0650  -23.5845 C   0  0  0  0  0  0  0  0  0  0  0  0
   -7.8646    1.9359  -23.6165 C   0  0  0  0  0  0  0  0  0  0  0  0
   -7.5977    2.8242  -22.5774 C   0  0  0  0  0  0  0  0  0  0  0  0
   -6.4536    3.6112  -22.6004 C   0  0  0  0  0  0  0  0  0  0  0  0
   -5.5553    3.5253  -23.6566 C   0  0  0  0  0  0  0  0  0  0  0  0
   -5.8119    2.6128  -24.6722 C   0  0  0  0  0  0  0  0  0  0  0  0
   -4.6636    2.4520  -25.9725 Cl  0  0  0  0  0  0  0  0  0  0  0  0
   -6.9499    1.8180  -24.6636 C   0  0  0  0  0  0  0  0  0  0  0  0
   -7.1071    1.1246  -25.4868 H   0  0  0  0  0  0  0  0  0  0  0  0
   -4.6478    4.1232  -23.6727 H   0  0  0  0  0  0  0  0  0  0  0  0
   -6.2499    4.2979  -21.7828 H   0  0  0  0  0  0  0  0  0  0  0  0
   -8.2908    2.8985  -21.7430 H   0  0  0  0  0  0  0  0  0  0  0  0
   -9.8639    1.5088  -22.9277 H   0  0  0  0  0  0  0  0  0  0  0  0
   -9.5317    0.9889  -24.5880 H   0  0  0  0  0  0  0  0  0  0  0  0
   -9.0227   -1.4366  -23.9355 C   0  0  2  0  0  0  0  0  0  0  0  0
  -10.0743   -2.4695  -23.4652 C   0  0  0  0  0  0  0  0  0  0  0  0
   -9.9592   -3.4612  -24.5954 N   0  0  1  0  0  4  0  0  0  0  0  0
  -11.2072   -3.7995  -25.2834 C   0  0  0  0  0  0  0  0  0  0  0  0
  -12.0062   -4.9607  -24.7949 C   0  0  0  0  0  0  0  0  0  0  0  0
  -11.2447   -5.0668  -26.0812 C   0  0  0  0  0  0  0  0  0  0  0  0
  -10.3303   -5.6503  -26.0975 H   0  0  0  0  0  0  0  0  0  0  0  0
  -11.8040   -5.1082  -27.0064 H   0  0  0  0  0  0  0  0  0  0  0  0
  -11.6013   -5.4839  -23.9368 H   0  0  0  0  0  0  0  0  0  0  0  0
  -13.0880   -4.8937  -24.8537 H   0  0  0  0  0  0  0  0  0  0  0  0
  -11.7487   -2.9464  -25.6677 H   0  0  0  0  0  0  0  0  0  0  0  0
   -8.9235   -2.7729  -25.4532 C   0  0  2  0  0  0  0  0  0  0  0  0
   -7.8915   -2.3775  -24.3904 C   0  0  0  0  0  0  0  0  0  0  0  0
   -7.6112   -3.1765  -23.6917 H   0  0  0  0  0  0  0  0  0  0  0  0
   -7.0266   -1.8494  -24.7944 H   0  0  0  0  0  0  0  0  0  0  0  0
   -9.4074   -1.3186  -25.4272 C   0  0  0  0  0  0  0  0  0  0  0  0
  -10.4646   -1.1398  -25.6463 H   0  0  0  0  0  0  0  0  0  0  0  0
   -8.7654   -0.6631  -26.0083 H   0  0  0  0  0  0  0  0  0  0  0  0
   -8.6689   -3.3049  -26.3623 H   0  0  0  0  0  0  0  0  0  0  0  0
   -9.5706   -4.3492  -24.2463 H   0  0  0  0  0  0  0  0  0  0  0  0
   -9.8283   -2.9391  -22.5124 H   0  0  0  0  0  0  0  0  0  0  0  0
  -11.0877   -2.0784  -23.4380 H   0  0  0  0  0  0  0  0  0  0  0  0
  1  2  2  0
  2  3  1  0
  3  4  1  0
  4  5  2  0
  5  6  1  0
  6  7  2  0
  7  8  1  0
  8  9  2  0
  9 10  1  0
 10 11  2  0
 11 12  1  0
 12 13  2  0
 12 14  1  0
 11 15  1  0
 10 16  1  0
  9 17  1  0
  7 18  1  0
  5 19  1  0
  3 20  1  0
  3 21  1  0
  2 22  1  0
 22 23  1  0
 23 24  1  0
 24 25  2  0
 25 26  1  0
 26 27  2  0
 27 28  1  0
 28 29  1  0
 28 30  2  0
 30 31  1  0
 27 32  1  0
 26 33  1  0
 25 34  1  0
 23 35  1  0
 23 36  1  0
 37 22  1  1
 37 38  1  0
 38 39  1  0
 39 40  1  0
 40 41  1  0
 41 42  1  0
 42 43  1  0
 42 44  1  0
 41 45  1  0
 41 46  1  0
 40 47  1  0
 39 48  1  0
 48 49  1  0
 49 50  1  0
 49 51  1  0
 48 52  1  0
 52 53  1  0
 52 54  1  0
 48 55  1  6
 39 56  1  1
 38 57  1  0
 38 58  1  0
 13  4  1  0
 30 24  1  0
 49 37  1  0
 13  8  1  0
 52 37  1  0
 42 40  1  0
M  CHG  1  39   1
M  END
>  <cnnaffinities>  (45) 
[5.88075, 5.63886, 5.95793, 6.45107]

>  <score>  (45) 
5.88075

>  <index>  (45) 
47

>  <Smiles>  (45) 
O=C(C(c1c(nc(c2c(c(c(c(c12)[H])[H])[H])[H])[H])[H])([H])[H])N(C(c1c(c(c(c(Cl)c1[H])[H])[H])[H])([H])[H])[C@]12C([N@@+](C3(C(C3([H])[H])([H])[H])[H])([C@](C1([H])[H])(C2([H])[H])[H])[H])([H])[H]

>  <h>  (45) 
<NA>

>  <Training>  (45) 
True

>  <Success>  (45) 
True

>  <enamine_searched>  (45) 
False

>  <enamine_id>  (45) 
nan

$$$$

     RDKit          3D

 46 48  0  0  0  0  0  0  0  0999 V2000
  -13.6445   -2.9920  -24.5858 C   0  0  0  0  0  0  0  0  0  0  0  0
  -13.4828   -2.7382  -23.0778 C   0  0  0  0  0  0  0  0  0  0  0  0
  -13.7259   -4.0439  -22.3029 C   0  0  0  0  0  0  0  0  0  0  0  0
  -13.6390   -3.9090  -21.2151 H   0  0  0  0  0  0  0  0  0  0  0  0
  -14.7235   -4.4473  -22.5161 H   0  0  0  0  0  0  0  0  0  0  0  0
  -12.9972   -4.8018  -22.6143 H   0  0  0  0  0  0  0  0  0  0  0  0
  -12.1278   -2.0873  -22.6685 C   0  0  0  0  0  0  0  0  0  0  0  0
  -10.9074   -3.0202  -22.8512 C   0  0  0  0  0  0  0  0  0  0  0  0
   -9.6341   -2.2298  -23.2020 C   0  0  0  0  0  0  0  0  0  0  0  0
   -9.5827   -0.9425  -22.5237 N   0  0  0  0  0  0  0  0  0  0  0  0
   -8.5196   -0.4387  -21.8125 C   0  0  0  0  0  0  0  0  0  0  0  0
   -8.4316    0.7553  -21.5818 O   0  0  0  0  0  0  0  0  0  0  0  0
   -7.4645   -1.4326  -21.2737 C   0  0  0  0  0  0  0  0  0  0  0  0
   -6.5922   -0.8266  -20.1921 C   0  0  0  0  0  0  0  0  0  0  0  0
   -6.8865   -1.0411  -18.8701 C   0  0  0  0  0  0  0  0  0  0  0  0
   -6.1963   -0.5332  -17.8153 N   0  0  0  0  0  0  0  0  0  0  0  0
   -5.1625    0.2212  -18.0794 C   0  0  0  0  0  0  0  0  0  0  0  0
   -4.7290    0.5340  -19.3932 C   0  0  0  0  0  0  0  0  0  0  0  0
   -3.6017    1.3626  -19.6272 C   0  0  0  0  0  0  0  0  0  0  0  0
   -3.2127    1.6551  -20.9043 C   0  0  0  0  0  0  0  0  0  0  0  0
   -3.9376    1.1308  -21.9979 C   0  0  0  0  0  0  0  0  0  0  0  0
   -5.0352    0.3286  -21.7954 C   0  0  0  0  0  0  0  0  0  0  0  0
   -5.4627    0.0030  -20.4818 C   0  0  0  0  0  0  0  0  0  0  0  0
   -5.5934   -0.0548  -22.6429 H   0  0  0  0  0  0  0  0  0  0  0  0
   -3.6294    1.3692  -23.0115 H   0  0  0  0  0  0  0  0  0  0  0  0
   -2.3589    2.3048  -21.0818 H   0  0  0  0  0  0  0  0  0  0  0  0
   -3.0736    1.7603  -18.7635 H   0  0  0  0  0  0  0  0  0  0  0  0
   -4.6123    0.6215  -17.2259 H   0  0  0  0  0  0  0  0  0  0  0  0
   -7.7323   -1.6661  -18.5836 H   0  0  0  0  0  0  0  0  0  0  0  0
   -7.9898   -2.3041  -20.8581 H   0  0  0  0  0  0  0  0  0  0  0  0
   -6.8485   -1.8222  -22.1007 H   0  0  0  0  0  0  0  0  0  0  0  0
  -10.6330    0.0096  -22.8806 C   0  0  0  0  0  0  0  0  0  0  0  0
  -11.8880   -0.7360  -23.3661 C   0  0  0  0  0  0  0  0  0  0  0  0
  -11.8068   -0.9146  -24.4507 H   0  0  0  0  0  0  0  0  0  0  0  0
  -12.7662   -0.1016  -23.2078 H   0  0  0  0  0  0  0  0  0  0  0  0
  -10.8054    0.6316  -21.9952 H   0  0  0  0  0  0  0  0  0  0  0  0
  -10.2676    0.6959  -23.6561 H   0  0  0  0  0  0  0  0  0  0  0  0
   -9.6231   -2.0539  -24.2898 H   0  0  0  0  0  0  0  0  0  0  0  0
   -8.7462   -2.8122  -22.9493 H   0  0  0  0  0  0  0  0  0  0  0  0
  -10.7646   -3.6002  -21.9268 H   0  0  0  0  0  0  0  0  0  0  0  0
  -11.0862   -3.7451  -23.6602 H   0  0  0  0  0  0  0  0  0  0  0  0
  -12.2277   -1.8975  -21.5900 H   0  0  0  0  0  0  0  0  0  0  0  0
  -14.2685   -2.0221  -22.7835 H   0  0  0  0  0  0  0  0  0  0  0  0
  -12.8743   -3.6770  -24.9706 H   0  0  0  0  0  0  0  0  0  0  0  0
  -14.6212   -3.4564  -24.7873 H   0  0  0  0  0  0  0  0  0  0  0  0
  -13.5948   -2.0622  -25.1654 H   0  0  0  0  0  0  0  0  0  0  0  0
  1  2  1  0
  2  3  1  0
  3  4  1  0
  3  5  1  0
  3  6  1  0
  2  7  1  0
  7  8  1  0
  8  9  1  0
  9 10  1  0
 10 11  1  0
 11 12  2  0
 11 13  1  0
 13 14  1  0
 14 15  2  0
 15 16  1  0
 16 17  2  0
 17 18  1  0
 18 19  2  0
 19 20  1  0
 20 21  2  0
 21 22  1  0
 22 23  2  0
 22 24  1  0
 21 25  1  0
 20 26  1  0
 19 27  1  0
 17 28  1  0
 15 29  1  0
 13 30  1  0
 13 31  1  0
 10 32  1  0
 32 33  1  0
 33 34  1  0
 33 35  1  0
 32 36  1  0
 32 37  1  0
  9 38  1  0
  9 39  1  0
  8 40  1  0
  8 41  1  0
  7 42  1  0
  2 43  1  0
  1 44  1  0
  1 45  1  0
  1 46  1  0
 33  7  1  0
 23 14  1  0
 23 18  1  0
M  END
>  <cnnaffinities>  (46) 
[5.30897, 5.01832, 5.04892, 5.04901, 5.05082, 4.74757, 4.74704, 4.74651]

>  <score>  (46) 
5.30897

>  <index>  (46) 
48

>  <Smiles>  (46) 
C(C(C([H])([H])[H])(C1(C(C(N(C(=O)C(c2c(nc(c3c(c(c(c(c23)[H])[H])[H])[H])[H])[H])([H])[H])C(C1([H])[H])([H])[H])([H])[H])([H])[H])[H])[H])([H])([H])[H]

>  <h>  (46) 
<NA>

>  <Training>  (46) 
True

>  <Success>  (46) 
True

>  <enamine_searched>  (46) 
False

>  <enamine_id>  (46) 
nan

$$$$

     RDKit          3D

 67 72  0  0  0  0  0  0  0  0999 V2000
   -7.4218    3.3449  -21.7556 C   0  0  0  0  0  0  0  0  0  0  0  0
   -8.2675    2.8788  -22.8379 N   0  0  0  0  0  0  0  0  0  0  0  0
   -7.6935    2.2206  -23.8672 C   0  0  0  0  0  0  0  0  0  0  0  0
   -6.4787    2.1349  -23.9918 O   0  0  0  0  0  0  0  0  0  0  0  0
   -8.6471    1.6001  -24.8978 C   0  0  0  0  0  0  0  0  0  0  0  0
   -9.3729    0.4446  -24.4007 N   0  0  0  0  0  0  0  0  0  0  0  0
   -8.6542   -0.8069  -24.2388 C   0  0  0  0  0  0  0  0  0  0  0  0
   -9.0440   -1.5284  -22.9226 C   0  0  2  0  0  0  0  0  0  0  0  0
   -8.5028   -0.7383  -21.7000 C   0  0  0  0  0  0  0  0  0  0  0  0
   -8.9553    0.2844  -21.2282 O   0  0  0  0  0  0  0  0  0  0  0  0
   -7.3916   -1.3899  -21.2105 N   0  0  0  0  0  0  0  0  0  0  0  0
   -6.5995   -0.8132  -20.1802 C   0  0  0  0  0  0  0  0  0  0  0  0
   -6.9060   -1.0425  -18.8627 C   0  0  0  0  0  0  0  0  0  0  0  0
   -6.1999   -0.5464  -17.8193 N   0  0  0  0  0  0  0  0  0  0  0  0
   -5.1646    0.2096  -18.0815 C   0  0  0  0  0  0  0  0  0  0  0  0
   -4.7270    0.5320  -19.3969 C   0  0  0  0  0  0  0  0  0  0  0  0
   -3.6002    1.3655  -19.6409 C   0  0  0  0  0  0  0  0  0  0  0  0
   -3.2145    1.6566  -20.9209 C   0  0  0  0  0  0  0  0  0  0  0  0
   -3.9377    1.1274  -22.0131 C   0  0  0  0  0  0  0  0  0  0  0  0
   -5.0308    0.3211  -21.8017 C   0  0  0  0  0  0  0  0  0  0  0  0
   -5.4617    0.0027  -20.4859 C   0  0  0  0  0  0  0  0  0  0  0  0
   -5.5880   -0.0641  -22.6509 H   0  0  0  0  0  0  0  0  0  0  0  0
   -3.6486    1.3662  -23.0306 H   0  0  0  0  0  0  0  0  0  0  0  0
   -2.3625    2.3075  -21.1012 H   0  0  0  0  0  0  0  0  0  0  0  0
   -3.0695    1.7730  -18.7845 H   0  0  0  0  0  0  0  0  0  0  0  0
   -4.6178    0.6123  -17.2288 H   0  0  0  0  0  0  0  0  0  0  0  0
   -7.7570   -1.6669  -18.6012 H   0  0  0  0  0  0  0  0  0  0  0  0
   -7.0413   -2.5965  -21.9310 C   0  0  0  0  0  0  0  0  0  0  0  0
   -8.2989   -2.8947  -22.7695 C   0  0  2  0  0  0  0  0  0  0  0  0
   -7.9617   -3.6784  -24.0569 C   0  0  0  0  0  0  0  0  0  0  0  0
   -7.4523   -5.0032  -23.7767 N   0  0  0  0  0  0  0  0  0  0  0  0
   -6.1224   -5.3087  -23.6634 C   0  0  0  0  0  0  0  0  0  0  0  0
   -5.0170   -4.5880  -24.0110 C   0  0  0  0  0  0  0  0  0  0  0  0
   -3.7949   -5.1933  -23.7899 N   0  0  0  0  0  0  0  0  0  0  0  0
   -3.9364   -6.3779  -23.2945 C   0  0  0  0  0  0  0  0  0  0  0  0
   -2.7947   -7.2999  -22.9853 C   0  0  0  0  0  0  0  0  0  0  0  0
   -3.0206   -7.9328  -22.1252 H   0  0  0  0  0  0  0  0  0  0  0  0
   -2.5857   -7.9506  -23.8436 H   0  0  0  0  0  0  0  0  0  0  0  0
   -1.9001   -6.7037  -22.7922 H   0  0  0  0  0  0  0  0  0  0  0  0
   -5.6036   -6.8631  -23.0339 S   0  0  0  0  0  0  0  0  0  0  0  0
   -5.0498   -3.6010  -24.4591 H   0  0  0  0  0  0  0  0  0  0  0  0
   -8.1091   -5.7214  -23.5118 H   0  0  0  0  0  0  0  0  0  0  0  0
   -8.8650   -3.7898  -24.6678 H   0  0  0  0  0  0  0  0  0  0  0  0
   -7.2156   -3.1295  -24.6510 H   0  0  0  0  0  0  0  0  0  0  0  0
   -8.9560   -3.5352  -22.1743 H   0  0  0  0  0  0  0  0  0  0  0  0
   -6.1560   -2.4461  -22.5715 H   0  0  0  0  0  0  0  0  0  0  0  0
   -6.7900   -3.4167  -21.2491 H   0  0  0  0  0  0  0  0  0  0  0  0
  -10.5626   -1.5769  -22.8498 C   0  0  0  0  0  0  0  0  0  0  0  0
  -11.2008   -2.4606  -21.9703 C   0  0  0  0  0  0  0  0  0  0  0  0
  -12.5806   -2.4826  -21.8866 C   0  0  0  0  0  0  0  0  0  0  0  0
  -13.3574   -3.5920  -20.7945 Cl  0  0  0  0  0  0  0  0  0  0  0  0
  -13.3707   -1.6234  -22.6490 C   0  0  0  0  0  0  0  0  0  0  0  0
  -12.7480   -0.7003  -23.4640 C   0  0  0  0  0  0  0  0  0  0  0  0
  -11.3563   -0.6508  -23.5438 C   0  0  0  0  0  0  0  0  0  0  0  0
  -10.7395    0.4810  -24.3148 C   0  0  0  0  0  0  0  0  0  0  0  0
  -11.4141    1.3835  -24.7913 O   0  0  0  0  0  0  0  0  0  0  0  0
  -13.3124    0.0249  -24.0399 H   0  0  0  0  0  0  0  0  0  0  0  0
  -14.4506   -1.6709  -22.5718 H   0  0  0  0  0  0  0  0  0  0  0  0
  -10.6341   -3.1184  -21.3220 H   0  0  0  0  0  0  0  0  0  0  0  0
   -7.5880   -0.5629  -24.2234 H   0  0  0  0  0  0  0  0  0  0  0  0
   -8.8576   -1.4746  -25.0925 H   0  0  0  0  0  0  0  0  0  0  0  0
   -9.4152    2.3066  -25.2270 H   0  0  0  0  0  0  0  0  0  0  0  0
   -8.0098    1.3296  -25.7469 H   0  0  0  0  0  0  0  0  0  0  0  0
   -9.2668    2.8153  -22.6957 H   0  0  0  0  0  0  0  0  0  0  0  0
   -6.8235    2.5184  -21.3440 H   0  0  0  0  0  0  0  0  0  0  0  0
   -6.7390    4.1288  -22.1022 H   0  0  0  0  0  0  0  0  0  0  0  0
   -8.0708    3.7592  -20.9949 H   0  0  0  0  0  0  0  0  0  0  0  0
  1  2  1  0
  2  3  1  0
  3  4  2  0
  3  5  1  0
  5  6  1  0
  6  7  1  0
  8  7  1  6
  8  9  1  0
  9 10  2  0
  9 11  1  0
 11 12  1  0
 12 13  2  0
 13 14  1  0
 14 15  2  0
 15 16  1  0
 16 17  2  0
 17 18  1  0
 18 19  2  0
 19 20  1  0
 20 21  2  0
 20 22  1  0
 19 23  1  0
 18 24  1  0
 17 25  1  0
 15 26  1  0
 13 27  1  0
 11 28  1  0
 28 29  1  0
 29 30  1  0
 30 31  1  0
 31 32  1  0
 32 33  2  0
 33 34  1  0
 34 35  2  0
 35 36  1  0
 36 37  1  0
 36 38  1  0
 36 39  1  0
 35 40  1  0
 33 41  1  0
 31 42  1  0
 30 43  1  0
 30 44  1  0
 29 45  1  1
 28 46  1  0
 28 47  1  0
  8 48  1  0
 48 49  2  0
 49 50  1  0
 50 51  1  0
 50 52  2  0
 52 53  1  0
 53 54  2  0
 54 55  1  0
 55 56  2  0
 53 57  1  0
 52 58  1  0
 49 59  1  0
  7 60  1  0
  7 61  1  0
  5 62  1  0
  5 63  1  0
  2 64  1  0
  1 65  1  0
  1 66  1  0
  1 67  1  0
 55  6  1  0
 29  8  1  0
 40 32  1  0
 54 48  1  0
 21 12  1  0
 21 16  1  0
M  END
>  <cnnaffinities>  (47) 
[7.2266]

>  <score>  (47) 
7.2266

>  <index>  (47) 
49

>  <Smiles>  (47) 
C(N(C(=O)C(N1C([C@@]2(C(=O)N(c3c(nc(c4c(c(c(c(c34)[H])[H])[H])[H])[H])[H])C([C@@]2(C(N(c2c(nc(C([H])([H])[H])s2)[H])[H])([H])[H])[H])([H])[H])c2c(c(Cl)c(c(c2C1=O)[H])[H])[H])([H])[H])([H])[H])[H])([H])([H])[H]

>  <h>  (47) 
<NA>

>  <Training>  (47) 
True

>  <Success>  (47) 
True

>  <enamine_searched>  (47) 
False

>  <enamine_id>  (47) 
nan

$$$$

     RDKit          3D

 66 70  0  0  0  0  0  0  0  0999 V2000
   -7.4007    3.3713  -21.7906 C   0  0  0  0  0  0  0  0  0  0  0  0
   -8.2322    2.8950  -22.8778 N   0  0  0  0  0  0  0  0  0  0  0  0
   -7.6533    2.2243  -23.8965 C   0  0  0  0  0  0  0  0  0  0  0  0
   -6.4382    2.1350  -24.0124 O   0  0  0  0  0  0  0  0  0  0  0  0
   -8.6094    1.5996  -24.9244 C   0  0  0  0  0  0  0  0  0  0  0  0
   -9.3575    0.4614  -24.4195 N   0  0  0  0  0  0  0  0  0  0  0  0
   -8.6606   -0.7987  -24.2419 C   0  0  0  0  0  0  0  0  0  0  0  0
   -9.0601   -1.4967  -22.9164 C   0  0  2  0  0  0  0  0  0  0  0  0
   -8.5012   -0.7021  -21.7025 C   0  0  0  0  0  0  0  0  0  0  0  0
   -8.9255    0.3356  -21.2423 O   0  0  0  0  0  0  0  0  0  0  0  0
   -7.4075   -1.3752  -21.2038 N   0  0  0  0  0  0  0  0  0  0  0  0
   -6.6057   -0.8050  -20.1773 C   0  0  0  0  0  0  0  0  0  0  0  0
   -6.9064   -1.0393  -18.8604 C   0  0  0  0  0  0  0  0  0  0  0  0
   -6.1965   -0.5467  -17.8178 N   0  0  0  0  0  0  0  0  0  0  0  0
   -5.1625    0.2099  -18.0806 C   0  0  0  0  0  0  0  0  0  0  0  0
   -4.7260    0.5323  -19.3958 C   0  0  0  0  0  0  0  0  0  0  0  0
   -3.5993    1.3655  -19.6415 C   0  0  0  0  0  0  0  0  0  0  0  0
   -3.2131    1.6550  -20.9211 C   0  0  0  0  0  0  0  0  0  0  0  0
   -3.9357    1.1220  -22.0134 C   0  0  0  0  0  0  0  0  0  0  0  0
   -5.0286    0.3159  -21.8002 C   0  0  0  0  0  0  0  0  0  0  0  0
   -5.4634    0.0042  -20.4847 C   0  0  0  0  0  0  0  0  0  0  0  0
   -5.5837   -0.0752  -22.6484 H   0  0  0  0  0  0  0  0  0  0  0  0
   -3.6465    1.3598  -23.0305 H   0  0  0  0  0  0  0  0  0  0  0  0
   -2.3621    2.3058  -21.1027 H   0  0  0  0  0  0  0  0  0  0  0  0
   -3.0691    1.7748  -18.7853 H   0  0  0  0  0  0  0  0  0  0  0  0
   -4.6167    0.6131  -17.2273 H   0  0  0  0  0  0  0  0  0  0  0  0
   -7.7561   -1.6639  -18.5966 H   0  0  0  0  0  0  0  0  0  0  0  0
   -7.0814   -2.5989  -21.9117 C   0  0  0  0  0  0  0  0  0  0  0  0
   -8.3434   -2.8714  -22.7582 C   0  0  2  0  0  0  0  0  0  0  0  0
   -8.0173   -3.6532  -24.0380 C   0  0  0  0  0  0  0  0  0  0  0  0
   -7.4912   -4.9286  -23.7255 O   0  0  0  0  0  0  0  0  0  0  0  0
   -8.4671   -5.9675  -23.6392 C   0  0  0  0  0  0  0  0  0  0  0  0
   -8.5695   -6.6992  -24.9771 C   0  0  0  0  0  0  0  0  0  0  0  0
   -8.8667   -6.0166  -25.7815 H   0  0  0  0  0  0  0  0  0  0  0  0
   -7.5964   -7.1306  -25.2359 H   0  0  0  0  0  0  0  0  0  0  0  0
   -9.3103   -7.5061  -24.9202 H   0  0  0  0  0  0  0  0  0  0  0  0
   -8.0507   -6.9032  -22.5135 C   0  0  0  0  0  0  0  0  0  0  0  0
   -7.0753   -7.3486  -22.7327 H   0  0  0  0  0  0  0  0  0  0  0  0
   -8.7840   -7.7086  -22.3957 H   0  0  0  0  0  0  0  0  0  0  0  0
   -7.9739   -6.3531  -21.5710 H   0  0  0  0  0  0  0  0  0  0  0  0
   -9.4491   -5.5188  -23.4016 H   0  0  0  0  0  0  0  0  0  0  0  0
   -8.9107   -3.7389  -24.6808 H   0  0  0  0  0  0  0  0  0  0  0  0
   -7.2393   -3.1340  -24.6137 H   0  0  0  0  0  0  0  0  0  0  0  0
   -9.0091   -3.5070  -22.1678 H   0  0  0  0  0  0  0  0  0  0  0  0
   -6.8620   -3.4115  -21.2101 H   0  0  0  0  0  0  0  0  0  0  0  0
   -6.1879   -2.4723  -22.5437 H   0  0  0  0  0  0  0  0  0  0  0  0
  -10.5774   -1.5225  -22.8422 C   0  0  0  0  0  0  0  0  0  0  0  0
  -11.2294   -2.3904  -21.9579 C   0  0  0  0  0  0  0  0  0  0  0  0
  -12.6061   -2.3780  -21.8799 C   0  0  0  0  0  0  0  0  0  0  0  0
  -13.2161   -3.2219  -21.0319 F   0  0  0  0  0  0  0  0  0  0  0  0
  -13.3911   -1.5170  -22.6361 C   0  0  0  0  0  0  0  0  0  0  0  0
  -12.7502   -0.6129  -23.4590 C   0  0  0  0  0  0  0  0  0  0  0  0
  -11.3570   -0.5887  -23.5431 C   0  0  0  0  0  0  0  0  0  0  0  0
  -10.7219    0.5248  -24.3263 C   0  0  0  0  0  0  0  0  0  0  0  0
  -11.3800    1.4371  -24.8061 O   0  0  0  0  0  0  0  0  0  0  0  0
  -13.3025    0.1176  -24.0393 H   0  0  0  0  0  0  0  0  0  0  0  0
  -14.4702   -1.5548  -22.5435 H   0  0  0  0  0  0  0  0  0  0  0  0
  -10.6909   -3.0607  -21.2990 H   0  0  0  0  0  0  0  0  0  0  0  0
   -8.8696   -1.4765  -25.0857 H   0  0  0  0  0  0  0  0  0  0  0  0
   -7.5910   -0.5720  -24.2267 H   0  0  0  0  0  0  0  0  0  0  0  0
   -9.3639    2.3105  -25.2774 H   0  0  0  0  0  0  0  0  0  0  0  0
   -7.9675    1.3074  -25.7613 H   0  0  0  0  0  0  0  0  0  0  0  0
   -9.2341    2.8438  -22.7485 H   0  0  0  0  0  0  0  0  0  0  0  0
   -6.7078    4.1479  -22.1355 H   0  0  0  0  0  0  0  0  0  0  0  0
   -6.8123    2.5506  -21.3504 H   0  0  0  0  0  0  0  0  0  0  0  0
   -8.0673    3.8011  -21.0523 H   0  0  0  0  0  0  0  0  0  0  0  0
  1  2  1  0
  2  3  1  0
  3  4  2  0
  3  5  1  0
  5  6  1  0
  6  7  1  0
  8  7  1  6
  8  9  1  0
  9 10  2  0
  9 11  1  0
 11 12  1  0
 12 13  2  0
 13 14  1  0
 14 15  2  0
 15 16  1  0
 16 17  2  0
 17 18  1  0
 18 19  2  0
 19 20  1  0
 20 21  2  0
 20 22  1  0
 19 23  1  0
 18 24  1  0
 17 25  1  0
 15 26  1  0
 13 27  1  0
 11 28  1  0
 28 29  1  0
 29 30  1  0
 30 31  1  0
 31 32  1  0
 32 33  1  0
 33 34  1  0
 33 35  1  0
 33 36  1  0
 32 37  1  0
 37 38  1  0
 37 39  1  0
 37 40  1  0
 32 41  1  0
 30 42  1  0
 30 43  1  0
 29 44  1  1
 28 45  1  0
 28 46  1  0
  8 47  1  0
 47 48  2  0
 48 49  1  0
 49 50  1  0
 49 51  2  0
 51 52  1  0
 52 53  2  0
 53 54  1  0
 54 55  2  0
 52 56  1  0
 51 57  1  0
 48 58  1  0
  7 59  1  0
  7 60  1  0
  5 61  1  0
  5 62  1  0
  2 63  1  0
  1 64  1  0
  1 65  1  0
  1 66  1  0
 54  6  1  0
 29  8  1  0
 53 47  1  0
 21 12  1  0
 21 16  1  0
M  END
>  <cnnaffinities>  (48) 
[6.23158, 6.29923, 6.68607, 6.65472, 6.65799, 6.89159]

>  <score>  (48) 
6.23158

>  <index>  (48) 
50

>  <Smiles>  (48) 
C(N(C(=O)C(N1C([C@@]2(C(=O)N(c3c(nc(c4c(c(c(c(c34)[H])[H])[H])[H])[H])[H])C([C@@]2(C(OC(C([H])([H])[H])(C([H])([H])[H])[H])([H])[H])[H])([H])[H])c2c(c(F)c(c(c2C1=O)[H])[H])[H])([H])[H])([H])[H])[H])([H])([H])[H]

>  <h>  (48) 
<NA>

>  <Training>  (48) 
True

>  <Success>  (48) 
True

>  <enamine_searched>  (48) 
False

>  <enamine_id>  (48) 
nan

$$$$

     RDKit          3D

 50 52  0  0  0  0  0  0  0  0999 V2000
   -9.6754   -0.9908  -26.4133 C   0  0  0  0  0  0  0  0  0  0  0  0
   -9.1058   -0.3174  -25.4277 C   0  0  0  0  0  0  0  0  0  0  0  0
   -9.6277   -0.4534  -24.0147 C   0  0  0  0  0  0  0  0  0  0  0  0
   -8.7363   -1.2279  -23.1587 N   0  0  0  0  0  0  0  0  0  0  0  0
   -8.0743   -0.5212  -22.1564 C   0  0  0  0  0  0  0  0  0  0  0  0
   -8.1182    0.6966  -22.0686 O   0  0  0  0  0  0  0  0  0  0  0  0
   -7.3745   -1.3163  -21.2751 N   0  0  0  0  0  0  0  0  0  0  0  0
   -6.5999   -0.7863  -20.2199 C   0  0  0  0  0  0  0  0  0  0  0  0
   -6.9106   -1.0562  -18.9110 C   0  0  0  0  0  0  0  0  0  0  0  0
   -6.2289   -0.5534  -17.8535 N   0  0  0  0  0  0  0  0  0  0  0  0
   -5.1946    0.2127  -18.1007 C   0  0  0  0  0  0  0  0  0  0  0  0
   -4.7479    0.5349  -19.4115 C   0  0  0  0  0  0  0  0  0  0  0  0
   -3.6048    1.3487  -19.6398 C   0  0  0  0  0  0  0  0  0  0  0  0
   -3.1770    1.6050  -20.9162 C   0  0  0  0  0  0  0  0  0  0  0  0
   -3.8711    1.0607  -22.0230 C   0  0  0  0  0  0  0  0  0  0  0  0
   -4.9836    0.2820  -21.8289 C   0  0  0  0  0  0  0  0  0  0  0  0
   -5.4596    0.0156  -20.5114 C   0  0  0  0  0  0  0  0  0  0  0  0
   -5.5098   -0.1475  -22.6750 H   0  0  0  0  0  0  0  0  0  0  0  0
   -3.5313    1.2700  -23.0373 H   0  0  0  0  0  0  0  0  0  0  0  0
   -2.3084    2.2386  -21.0835 H   0  0  0  0  0  0  0  0  0  0  0  0
   -3.0822    1.7559  -18.7783 H   0  0  0  0  0  0  0  0  0  0  0  0
   -4.6421    0.6078  -17.2456 H   0  0  0  0  0  0  0  0  0  0  0  0
   -7.7692   -1.6861  -18.6706 H   0  0  0  0  0  0  0  0  0  0  0  0
   -7.6579   -2.2838  -21.2193 H   0  0  0  0  0  0  0  0  0  0  0  0
   -8.4222   -2.5614  -23.5670 C   0  0  0  0  0  0  0  0  0  0  0  0
   -7.1094   -2.9200  -23.8790 C   0  0  0  0  0  0  0  0  0  0  0  0
   -6.8288   -4.2175  -24.2861 C   0  0  0  0  0  0  0  0  0  0  0  0
   -7.8485   -5.1555  -24.4301 C   0  0  0  0  0  0  0  0  0  0  0  0
   -9.1607   -4.7631  -24.1942 C   0  0  0  0  0  0  0  0  0  0  0  0
  -10.4658   -5.8779  -24.5181 Cl  0  0  0  0  0  0  0  0  0  0  0  0
   -9.4604   -3.4787  -23.7569 C   0  0  0  0  0  0  0  0  0  0  0  0
  -10.4931   -3.2003  -23.5673 H   0  0  0  0  0  0  0  0  0  0  0  0
   -7.6311   -6.1776  -24.7227 H   0  0  0  0  0  0  0  0  0  0  0  0
   -5.8013   -4.4840  -24.5150 H   0  0  0  0  0  0  0  0  0  0  0  0
   -6.3237   -2.1669  -23.8280 H   0  0  0  0  0  0  0  0  0  0  0  0
  -10.5987   -0.9570  -24.0833 H   0  0  0  0  0  0  0  0  0  0  0  0
   -9.7826    0.5000  -23.5058 H   0  0  0  0  0  0  0  0  0  0  0  0
   -7.8739    0.4808  -25.7643 C   0  0  0  0  0  0  0  0  0  0  0  0
   -7.2020    0.2449  -26.7636 O   0  0  0  0  0  0  0  0  0  0  0  0
   -7.5562    1.4925  -24.9252 N   0  0  0  0  0  0  0  0  0  0  0  0
   -6.2363    2.0824  -25.0046 C   0  0  0  0  0  0  0  0  0  0  0  0
   -6.0554    3.1678  -23.9645 C   0  0  0  0  0  0  0  0  0  0  0  0
   -6.7545    3.9924  -24.1309 H   0  0  0  0  0  0  0  0  0  0  0  0
   -5.0329    3.5627  -23.9941 H   0  0  0  0  0  0  0  0  0  0  0  0
   -6.2464    2.7572  -22.9654 H   0  0  0  0  0  0  0  0  0  0  0  0
   -6.0995    2.4543  -26.0202 H   0  0  0  0  0  0  0  0  0  0  0  0
   -5.4852    1.2952  -24.8593 H   0  0  0  0  0  0  0  0  0  0  0  0
   -8.1223    1.6822  -24.1125 H   0  0  0  0  0  0  0  0  0  0  0  0
   -9.3029   -0.9311  -27.4327 H   0  0  0  0  0  0  0  0  0  0  0  0
  -10.5669   -1.5786  -26.2043 H   0  0  0  0  0  0  0  0  0  0  0  0
  1  2  2  0
  2  3  1  0
  3  4  1  0
  4  5  1  0
  5  6  2  0
  5  7  1  0
  7  8  1  0
  8  9  2  0
  9 10  1  0
 10 11  2  0
 11 12  1  0
 12 13  2  0
 13 14  1  0
 14 15  2  0
 15 16  1  0
 16 17  2  0
 16 18  1  0
 15 19  1  0
 14 20  1  0
 13 21  1  0
 11 22  1  0
  9 23  1  0
  7 24  1  0
  4 25  1  0
 25 26  2  0
 26 27  1  0
 27 28  2  0
 28 29  1  0
 29 30  1  0
 29 31  2  0
 31 32  1  0
 28 33  1  0
 27 34  1  0
 26 35  1  0
  3 36  1  0
  3 37  1  0
  2 38  1  0
 38 39  2  0
 38 40  1  0
 40 41  1  0
 41 42  1  0
 42 43  1  0
 42 44  1  0
 42 45  1  0
 41 46  1  0
 41 47  1  0
 40 48  1  0
  1 49  1  0
  1 50  1  0
 17  8  1  0
 31 25  1  0
 17 12  1  0
M  END
>  <cnnaffinities>  (49) 
[5.50268, 5.61038]

>  <score>  (49) 
5.50268

>  <index>  (49) 
51

>  <Smiles>  (49) 
C(=C(C(N(C(=O)N(c1c(nc(c2c(c(c(c(c12)[H])[H])[H])[H])[H])[H])[H])c1c(c(c(c(Cl)c1[H])[H])[H])[H])([H])[H])C(=O)N(C(C([H])([H])[H])([H])[H])[H])([H])[H]

>  <h>  (49) 
<NA>

>  <Training>  (49) 
True

>  <Success>  (49) 
True

>  <enamine_searched>  (49) 
False

>  <enamine_id>  (49) 
nan

$$$$

     RDKit          3D

 57 60  0  0  0  0  0  0  0  0999 V2000
  -14.0153   -1.2322  -24.1860 C   0  0  0  0  0  0  0  0  0  0  0  0
  -13.0777   -2.4471  -24.0892 C   0  0  0  0  0  0  0  0  0  0  0  0
  -11.6095   -2.0385  -23.9234 C   0  0  0  0  0  0  0  0  0  0  0  0
  -11.1342   -1.8491  -22.8209 O   0  0  0  0  0  0  0  0  0  0  0  0
  -10.8776   -1.8657  -25.0811 N   0  0  0  0  0  0  0  0  0  0  0  0
   -9.4720   -1.6613  -25.0984 C   0  0  0  0  0  0  0  0  0  0  0  0
   -8.9083   -0.8503  -26.0876 C   0  0  0  0  0  0  0  0  0  0  0  0
   -7.5339   -0.6493  -26.1068 C   0  0  0  0  0  0  0  0  0  0  0  0
   -6.7048   -1.2599  -25.1754 C   0  0  0  0  0  0  0  0  0  0  0  0
   -7.2678   -2.0736  -24.1952 C   0  0  0  0  0  0  0  0  0  0  0  0
   -6.4149   -2.6989  -23.2355 N   0  0  0  0  0  0  0  0  0  0  0  0
   -5.4294   -3.6739  -23.7156 C   0  0  0  0  0  0  0  0  0  0  0  0
   -6.0352   -5.0202  -24.0660 C   0  0  0  0  0  0  0  0  0  0  0  0
   -6.6584   -5.1937  -25.3008 C   0  0  0  0  0  0  0  0  0  0  0  0
   -7.2920   -6.3913  -25.6031 C   0  0  0  0  0  0  0  0  0  0  0  0
   -7.3120   -7.4239  -24.6761 C   0  0  0  0  0  0  0  0  0  0  0  0
   -6.6437   -7.2866  -23.4609 C   0  0  0  0  0  0  0  0  0  0  0  0
   -6.0100   -6.0827  -23.1594 C   0  0  0  0  0  0  0  0  0  0  0  0
   -5.5270   -5.9417  -22.1933 H   0  0  0  0  0  0  0  0  0  0  0  0
   -6.6266   -8.1003  -22.7366 H   0  0  0  0  0  0  0  0  0  0  0  0
   -7.8944   -8.3041  -24.9333 H   0  0  0  0  0  0  0  0  0  0  0  0
   -7.7997   -6.5324  -26.5539 H   0  0  0  0  0  0  0  0  0  0  0  0
   -6.6850   -4.3729  -26.0165 H   0  0  0  0  0  0  0  0  0  0  0  0
   -4.6743   -3.7867  -22.9347 H   0  0  0  0  0  0  0  0  0  0  0  0
   -4.9521   -3.2450  -24.6022 H   0  0  0  0  0  0  0  0  0  0  0  0
   -6.6501   -2.6794  -21.8725 C   0  0  0  0  0  0  0  0  0  0  0  0
   -6.2432   -3.5798  -21.1570 O   0  0  0  0  0  0  0  0  0  0  0  0
   -7.3845   -1.4682  -21.2760 C   0  0  0  0  0  0  0  0  0  0  0  0
   -6.5743   -0.8212  -20.1768 C   0  0  0  0  0  0  0  0  0  0  0  0
   -6.8710   -1.0443  -18.8591 C   0  0  0  0  0  0  0  0  0  0  0  0
   -6.1821   -0.5363  -17.8044 N   0  0  0  0  0  0  0  0  0  0  0  0
   -5.1532    0.2236  -18.0678 C   0  0  0  0  0  0  0  0  0  0  0  0
   -4.7188    0.5388  -19.3842 C   0  0  0  0  0  0  0  0  0  0  0  0
   -3.5885    1.3601  -19.6230 C   0  0  0  0  0  0  0  0  0  0  0  0
   -3.1908    1.6357  -20.9010 C   0  0  0  0  0  0  0  0  0  0  0  0
   -3.9068    1.0973  -21.9945 C   0  0  0  0  0  0  0  0  0  0  0  0
   -5.0049    0.2998  -21.7903 C   0  0  0  0  0  0  0  0  0  0  0  0
   -5.4446    0.0004  -20.4728 C   0  0  0  0  0  0  0  0  0  0  0  0
   -5.5377   -0.1081  -22.6488 H   0  0  0  0  0  0  0  0  0  0  0  0
   -3.5914    1.3210  -23.0083 H   0  0  0  0  0  0  0  0  0  0  0  0
   -2.3328    2.2766  -21.0848 H   0  0  0  0  0  0  0  0  0  0  0  0
   -3.0588    1.7686  -18.7665 H   0  0  0  0  0  0  0  0  0  0  0  0
   -4.6042    0.6289  -17.2157 H   0  0  0  0  0  0  0  0  0  0  0  0
   -7.7196   -1.6689  -18.5787 H   0  0  0  0  0  0  0  0  0  0  0  0
   -7.6389   -0.7500  -22.0637 H   0  0  0  0  0  0  0  0  0  0  0  0
   -8.3296   -1.8400  -20.8576 H   0  0  0  0  0  0  0  0  0  0  0  0
   -8.6467   -2.2899  -24.1653 C   0  0  0  0  0  0  0  0  0  0  0  0
   -9.0817   -2.9628  -23.4309 H   0  0  0  0  0  0  0  0  0  0  0  0
   -5.6287   -1.1024  -25.1871 H   0  0  0  0  0  0  0  0  0  0  0  0
   -7.0958   -0.0095  -26.8636 H   0  0  0  0  0  0  0  0  0  0  0  0
   -9.5376   -0.3653  -26.8304 H   0  0  0  0  0  0  0  0  0  0  0  0
  -11.3569   -1.8290  -25.9730 H   0  0  0  0  0  0  0  0  0  0  0  0
  -13.3201   -3.0129  -23.1840 H   0  0  0  0  0  0  0  0  0  0  0  0
  -13.2208   -3.1190  -24.9493 H   0  0  0  0  0  0  0  0  0  0  0  0
  -15.0666   -1.5367  -24.2702 H   0  0  0  0  0  0  0  0  0  0  0  0
  -13.9057   -0.5714  -23.3184 H   0  0  0  0  0  0  0  0  0  0  0  0
  -13.7895   -0.6383  -25.0638 H   0  0  0  0  0  0  0  0  0  0  0  0
  1  2  1  0
  2  3  1  0
  3  4  2  0
  3  5  1  0
  5  6  1  0
  6  7  2  0
  7  8  1  0
  8  9  2  0
  9 10  1  0
 10 11  1  0
 11 12  1  0
 12 13  1  0
 13 14  2  0
 14 15  1  0
 15 16  2  0
 16 17  1  0
 17 18  2  0
 18 19  1  0
 17 20  1  0
 16 21  1  0
 15 22  1  0
 14 23  1  0
 12 24  1  0
 12 25  1  0
 11 26  1  0
 26 27  2  0
 26 28  1  0
 28 29  1  0
 29 30  2  0
 30 31  1  0
 31 32  2  0
 32 33  1  0
 33 34  2  0
 34 35  1  0
 35 36  2  0
 36 37  1  0
 37 38  2  0
 37 39  1  0
 36 40  1  0
 35 41  1  0
 34 42  1  0
 32 43  1  0
 30 44  1  0
 28 45  1  0
 28 46  1  0
 10 47  2  0
 47 48  1  0
  9 49  1  0
  8 50  1  0
  7 51  1  0
  5 52  1  0
  2 53  1  0
  2 54  1  0
  1 55  1  0
  1 56  1  0
  1 57  1  0
 47  6  1  0
 18 13  1  0
 38 29  1  0
 38 33  1  0
M  END
>  <cnnaffinities>  (50) 
[6.3754, 6.17405]

>  <score>  (50) 
6.3754

>  <index>  (50) 
52

>  <Smiles>  (50) 
C(C(C(=O)N(c1c(c(c(c(N(C(c2c(c(c(c(c2[H])[H])[H])[H])[H])([H])[H])C(=O)C(c2c(nc(c3c(c(c(c(c23)[H])[H])[H])[H])[H])[H])([H])[H])c1[H])[H])[H])[H])[H])([H])[H])([H])([H])[H]

>  <h>  (50) 
<NA>

>  <Training>  (50) 
True

>  <Success>  (50) 
True

>  <enamine_searched>  (50) 
False

>  <enamine_id>  (50) 
nan

$$$$

     RDKit          3D

 59 63  0  0  0  0  0  0  0  0999 V2000
  -13.9630   -1.0613  -24.5310 C   0  0  0  0  0  0  0  0  0  0  0  0
  -14.8547   -2.0958  -23.8475 C   0  0  0  0  0  0  0  0  0  0  0  0
  -14.0665   -3.1232  -23.1921 N   0  0  0  0  0  0  0  0  0  0  0  0
  -13.2904   -2.7825  -22.1195 C   0  0  0  0  0  0  0  0  0  0  0  0
  -13.3304   -1.6995  -21.5599 O   0  0  0  0  0  0  0  0  0  0  0  0
  -12.4111   -3.9359  -21.6670 C   0  0  0  0  0  0  0  0  0  0  0  0
  -11.0925   -3.8822  -22.2641 N   0  0  0  0  0  0  0  0  0  0  0  0
   -9.9725   -3.3770  -21.4791 C   0  0  0  0  0  0  0  0  0  0  0  0
   -8.7848   -2.9146  -22.3543 C   0  0  2  0  0  0  0  0  0  0  0  0
   -7.5610   -2.7013  -21.4496 C   0  0  0  0  0  0  0  0  0  0  0  0
   -6.8294   -3.5604  -21.0020 O   0  0  0  0  0  0  0  0  0  0  0  0
   -7.3990   -1.3493  -21.2384 N   0  0  0  0  0  0  0  0  0  0  0  0
   -6.5779   -0.8557  -20.1974 C   0  0  0  0  0  0  0  0  0  0  0  0
   -6.8868   -1.0990  -18.8832 C   0  0  0  0  0  0  0  0  0  0  0  0
   -6.2127   -0.5657  -17.8352 N   0  0  0  0  0  0  0  0  0  0  0  0
   -5.1936    0.2115  -18.0970 C   0  0  0  0  0  0  0  0  0  0  0  0
   -4.7473    0.5220  -19.4126 C   0  0  0  0  0  0  0  0  0  0  0  0
   -3.6195    1.3482  -19.6471 C   0  0  0  0  0  0  0  0  0  0  0  0
   -3.2162    1.6143  -20.9260 C   0  0  0  0  0  0  0  0  0  0  0  0
   -3.9186    1.0664  -22.0240 C   0  0  0  0  0  0  0  0  0  0  0  0
   -5.0138    0.2634  -21.8218 C   0  0  0  0  0  0  0  0  0  0  0  0
   -5.4585   -0.0219  -20.5046 C   0  0  0  0  0  0  0  0  0  0  0  0
   -5.5363   -0.1717  -22.6681 H   0  0  0  0  0  0  0  0  0  0  0  0
   -3.5881    1.2816  -23.0346 H   0  0  0  0  0  0  0  0  0  0  0  0
   -2.3607    2.2570  -21.1062 H   0  0  0  0  0  0  0  0  0  0  0  0
   -3.0946    1.7609  -18.7894 H   0  0  0  0  0  0  0  0  0  0  0  0
   -4.6553    0.6311  -17.2468 H   0  0  0  0  0  0  0  0  0  0  0  0
   -7.7283   -1.7373  -18.6263 H   0  0  0  0  0  0  0  0  0  0  0  0
   -8.3947   -0.5257  -21.9043 C   0  0  0  0  0  0  0  0  0  0  0  0
   -9.0071   -1.4749  -22.9441 C   0  0  2  0  0  0  0  0  0  0  0  0
  -10.4501   -1.1248  -23.2796 C   0  0  0  0  0  0  0  0  0  0  0  0
  -10.5309   -0.1587  -23.7872 H   0  0  0  0  0  0  0  0  0  0  0  0
  -11.0606   -1.0887  -22.3688 H   0  0  0  0  0  0  0  0  0  0  0  0
  -10.8802   -1.8911  -23.9319 H   0  0  0  0  0  0  0  0  0  0  0  0
   -8.3957   -1.4357  -23.8566 H   0  0  0  0  0  0  0  0  0  0  0  0
   -7.9319    0.3542  -22.3636 H   0  0  0  0  0  0  0  0  0  0  0  0
   -9.1531   -0.1632  -21.1906 H   0  0  0  0  0  0  0  0  0  0  0  0
   -8.5204   -3.9649  -23.4032 C   0  0  0  0  0  0  0  0  0  0  0  0
   -7.2476   -4.0914  -23.9620 C   0  0  0  0  0  0  0  0  0  0  0  0
   -7.0208   -5.0298  -24.9504 C   0  0  0  0  0  0  0  0  0  0  0  0
   -5.4482   -5.1270  -25.6807 Cl  0  0  0  0  0  0  0  0  0  0  0  0
   -8.0282   -5.8806  -25.4020 C   0  0  0  0  0  0  0  0  0  0  0  0
   -9.2901   -5.7470  -24.8577 C   0  0  0  0  0  0  0  0  0  0  0  0
   -9.5448   -4.7808  -23.8887 C   0  0  0  0  0  0  0  0  0  0  0  0
  -10.9424   -4.5927  -23.4178 C   0  0  0  0  0  0  0  0  0  0  0  0
  -11.9097   -5.0410  -24.0347 O   0  0  0  0  0  0  0  0  0  0  0  0
  -10.1064   -6.3858  -25.1723 H   0  0  0  0  0  0  0  0  0  0  0  0
   -7.8251   -6.6210  -26.1692 H   0  0  0  0  0  0  0  0  0  0  0  0
   -6.4265   -3.4737  -23.6152 H   0  0  0  0  0  0  0  0  0  0  0  0
   -9.6489   -4.1690  -20.7942 H   0  0  0  0  0  0  0  0  0  0  0  0
  -10.3133   -2.5022  -20.9094 H   0  0  0  0  0  0  0  0  0  0  0  0
  -12.9033   -4.8012  -22.0963 H   0  0  0  0  0  0  0  0  0  0  0  0
  -12.3555   -4.0144  -20.5787 H   0  0  0  0  0  0  0  0  0  0  0  0
  -13.6929   -3.8661  -23.7815 H   0  0  0  0  0  0  0  0  0  0  0  0
  -15.4704   -1.6191  -23.0735 H   0  0  0  0  0  0  0  0  0  0  0  0
  -15.5102   -2.6148  -24.5553 H   0  0  0  0  0  0  0  0  0  0  0  0
  -14.5518   -0.3081  -25.0581 H   0  0  0  0  0  0  0  0  0  0  0  0
  -13.2859   -1.5469  -25.2518 H   0  0  0  0  0  0  0  0  0  0  0  0
  -13.3706   -0.5615  -23.7553 H   0  0  0  0  0  0  0  0  0  0  0  0
  1  2  1  0
  2  3  1  0
  3  4  1  0
  4  5  2  0
  4  6  1  0
  6  7  1  0
  7  8  1  0
  9  8  1  1
  9 10  1  0
 10 11  2  0
 10 12  1  0
 12 13  1  0
 13 14  2  0
 14 15  1  0
 15 16  2  0
 16 17  1  0
 17 18  2  0
 18 19  1  0
 19 20  2  0
 20 21  1  0
 21 22  2  0
 21 23  1  0
 20 24  1  0
 19 25  1  0
 18 26  1  0
 16 27  1  0
 14 28  1  0
 12 29  1  0
 29 30  1  0
 30 31  1  0
 31 32  1  0
 31 33  1  0
 31 34  1  0
 30 35  1  6
 29 36  1  0
 29 37  1  0
  9 38  1  0
 38 39  2  0
 39 40  1  0
 40 41  1  0
 40 42  2  0
 42 43  1  0
 43 44  2  0
 44 45  1  0
 45 46  2  0
 43 47  1  0
 42 48  1  0
 39 49  1  0
  8 50  1  0
  8 51  1  0
  6 52  1  0
  6 53  1  0
  3 54  1  0
  2 55  1  0
  2 56  1  0
  1 57  1  0
  1 58  1  0
  1 59  1  0
 45  7  1  0
 30  9  1  0
 44 38  1  0
 22 13  1  0
 22 17  1  0
M  END
>  <cnnaffinities>  (51) 
[6.64886]

>  <score>  (51) 
6.64886

>  <index>  (51) 
53

>  <Smiles>  (51) 
C(C(N(C(=O)C(N1C([C@@]2(C(=O)N(c3c(nc(c4c(c(c(c(c34)[H])[H])[H])[H])[H])[H])C([C@@]2(C([H])([H])[H])[H])([H])[H])c2c(c(Cl)c(c(c2C1=O)[H])[H])[H])([H])[H])([H])[H])[H])([H])[H])([H])([H])[H]

>  <h>  (51) 
<NA>

>  <Training>  (51) 
True

>  <Success>  (51) 
True

>  <enamine_searched>  (51) 
False

>  <enamine_id>  (51) 
nan

$$$$

     RDKit          3D

 40 43  0  0  0  0  0  0  0  0999 V2000
  -10.3234   -2.3057  -23.0019 C   0  0  0  0  0  0  0  0  0  0  0  0
   -8.9835   -2.1729  -22.4694 N   0  0  0  0  0  0  0  0  0  0  0  0
   -7.7936   -2.6477  -22.9380 C   0  0  0  0  0  0  0  0  0  0  0  0
   -7.6689   -3.3469  -24.2485 C   0  0  0  0  0  0  0  0  0  0  0  0
   -7.6795   -2.3455  -25.3960 C   0  0  0  0  0  0  0  0  0  0  0  0
   -8.8040   -2.1589  -26.1985 C   0  0  0  0  0  0  0  0  0  0  0  0
   -8.7956   -1.2236  -27.2344 C   0  0  0  0  0  0  0  0  0  0  0  0
   -7.6606   -0.4516  -27.4642 C   0  0  0  0  0  0  0  0  0  0  0  0
   -6.5404   -0.6145  -26.6524 C   0  0  0  0  0  0  0  0  0  0  0  0
   -6.5566   -1.5518  -25.6228 C   0  0  0  0  0  0  0  0  0  0  0  0
   -5.6917   -1.6771  -24.9725 H   0  0  0  0  0  0  0  0  0  0  0  0
   -5.6501   -0.0131  -26.8231 H   0  0  0  0  0  0  0  0  0  0  0  0
   -7.6488    0.2774  -28.2719 H   0  0  0  0  0  0  0  0  0  0  0  0
   -9.6711   -1.1026  -27.8687 H   0  0  0  0  0  0  0  0  0  0  0  0
   -9.6997   -2.7495  -26.0072 H   0  0  0  0  0  0  0  0  0  0  0  0
   -6.7327   -3.9150  -24.2434 H   0  0  0  0  0  0  0  0  0  0  0  0
   -8.4912   -4.0609  -24.3789 H   0  0  0  0  0  0  0  0  0  0  0  0
   -6.7917   -2.2485  -22.2084 N   0  0  0  0  0  0  0  0  0  0  0  0
   -7.3444   -1.4591  -21.2335 N   0  0  0  0  0  0  0  0  0  0  0  0
   -6.5717   -0.8660  -20.1974 C   0  0  0  0  0  0  0  0  0  0  0  0
   -6.8965   -1.0715  -18.8772 C   0  0  0  0  0  0  0  0  0  0  0  0
   -6.2050   -0.5478  -17.8386 N   0  0  0  0  0  0  0  0  0  0  0  0
   -5.1711    0.2060  -18.1011 C   0  0  0  0  0  0  0  0  0  0  0  0
   -4.7335    0.5182  -19.4142 C   0  0  0  0  0  0  0  0  0  0  0  0
   -3.6092    1.3598  -19.6357 C   0  0  0  0  0  0  0  0  0  0  0  0
   -3.2235    1.6720  -20.9083 C   0  0  0  0  0  0  0  0  0  0  0  0
   -3.9579    1.1642  -22.0064 C   0  0  0  0  0  0  0  0  0  0  0  0
   -5.0448    0.3492  -21.8151 C   0  0  0  0  0  0  0  0  0  0  0  0
   -5.4553   -0.0231  -20.5049 C   0  0  0  0  0  0  0  0  0  0  0  0
   -5.6067   -0.0410  -22.6556 H   0  0  0  0  0  0  0  0  0  0  0  0
   -3.6509    1.4185  -23.0152 H   0  0  0  0  0  0  0  0  0  0  0  0
   -2.3670    2.3184  -21.0840 H   0  0  0  0  0  0  0  0  0  0  0  0
   -3.0797    1.7518  -18.7707 H   0  0  0  0  0  0  0  0  0  0  0  0
   -4.6260    0.6113  -17.2475 H   0  0  0  0  0  0  0  0  0  0  0  0
   -7.7540   -1.6773  -18.6017 H   0  0  0  0  0  0  0  0  0  0  0  0
   -8.6973   -1.2626  -21.4572 C   0  0  0  0  0  0  0  0  0  0  0  0
   -9.4339   -0.4341  -20.9736 O   0  0  0  0  0  0  0  0  0  0  0  0
  -10.4950   -1.5478  -23.7700 H   0  0  0  0  0  0  0  0  0  0  0  0
  -10.5082   -3.3090  -23.4009 H   0  0  0  0  0  0  0  0  0  0  0  0
  -10.9981   -2.1140  -22.1690 H   0  0  0  0  0  0  0  0  0  0  0  0
  1  2  1  0
  2  3  1  0
  3  4  1  0
  4  5  1  0
  5  6  2  0
  6  7  1  0
  7  8  2  0
  8  9  1  0
  9 10  2  0
 10 11  1  0
  9 12  1  0
  8 13  1  0
  7 14  1  0
  6 15  1  0
  4 16  1  0
  4 17  1  0
  3 18  2  0
 18 19  1  0
 19 20  1  0
 20 21  2  0
 21 22  1  0
 22 23  2  0
 23 24  1  0
 24 25  2  0
 25 26  1  0
 26 27  2  0
 27 28  1  0
 28 29  2  0
 28 30  1  0
 27 31  1  0
 26 32  1  0
 25 33  1  0
 23 34  1  0
 21 35  1  0
 19 36  1  0
 36 37  2  0
  1 38  1  0
  1 39  1  0
  1 40  1  0
 36  2  1  0
 10  5  1  0
 29 20  1  0
 29 24  1  0
M  END
>  <cnnaffinities>  (52) 
[4.78768, 4.78767, 5.16909, 5.16211]

>  <score>  (52) 
4.78768

>  <index>  (52) 
54

>  <Smiles>  (52) 
C(n1c(C(c2c(c(c(c(c2[H])[H])[H])[H])[H])([H])[H])nn(c2c(nc(c3c(c(c(c(c23)[H])[H])[H])[H])[H])[H])c1=O)([H])([H])[H]

>  <h>  (52) 
<NA>

>  <Training>  (52) 
True

>  <Success>  (52) 
True

>  <enamine_searched>  (52) 
False

>  <enamine_id>  (52) 
nan

$$$$

     RDKit          3D

 61 66  0  0  0  0  0  0  0  0999 V2000
   -7.0112   -5.4573  -25.0433 C   0  0  0  0  0  0  0  0  0  0  0  0
   -7.3441   -4.7942  -23.8494 O   0  0  0  0  0  0  0  0  0  0  0  0
   -7.9926   -3.5688  -24.0824 C   0  0  0  0  0  0  0  0  0  0  0  0
   -8.2918   -2.9114  -22.7386 C   0  0  1  0  0  0  0  0  0  0  0  0
   -7.0113   -2.5477  -21.9649 C   0  0  0  0  0  0  0  0  0  0  0  0
   -7.3898   -1.3683  -21.2124 N   0  0  0  0  0  0  0  0  0  0  0  0
   -6.5981   -0.8054  -20.1833 C   0  0  0  0  0  0  0  0  0  0  0  0
   -6.9131   -1.0385  -18.8688 C   0  0  0  0  0  0  0  0  0  0  0  0
   -6.2097   -0.5441  -17.8224 N   0  0  0  0  0  0  0  0  0  0  0  0
   -5.1767    0.2149  -18.0888 C   0  0  0  0  0  0  0  0  0  0  0  0
   -4.7443    0.5387  -19.4062 C   0  0  0  0  0  0  0  0  0  0  0  0
   -3.6248    1.3773  -19.6459 C   0  0  0  0  0  0  0  0  0  0  0  0
   -3.2384    1.6686  -20.9251 C   0  0  0  0  0  0  0  0  0  0  0  0
   -3.9362    1.1231  -22.0235 C   0  0  0  0  0  0  0  0  0  0  0  0
   -5.0127    0.2925  -21.8157 C   0  0  0  0  0  0  0  0  0  0  0  0
   -5.4575   -0.0053  -20.4977 C   0  0  0  0  0  0  0  0  0  0  0  0
   -5.5674   -0.0814  -22.6713 H   0  0  0  0  0  0  0  0  0  0  0  0
   -3.6243    1.3767  -23.0345 H   0  0  0  0  0  0  0  0  0  0  0  0
   -2.3874    2.3182  -21.1030 H   0  0  0  0  0  0  0  0  0  0  0  0
   -3.0848    1.7694  -18.7903 H   0  0  0  0  0  0  0  0  0  0  0  0
   -4.6081    0.6111  -17.2451 H   0  0  0  0  0  0  0  0  0  0  0  0
   -7.7769   -1.6541  -18.6251 H   0  0  0  0  0  0  0  0  0  0  0  0
   -8.5953   -0.8165  -21.5789 C   0  0  0  0  0  0  0  0  0  0  0  0
   -9.1165    0.1373  -21.0338 O   0  0  0  0  0  0  0  0  0  0  0  0
   -9.1378   -1.6085  -22.7874 C   0  0  1  0  0  0  0  0  0  0  0  0
   -8.8610   -0.8338  -24.0970 C   0  0  0  0  0  0  0  0  0  0  0  0
   -9.6819    0.3520  -24.2165 N   0  0  0  0  0  0  0  0  0  0  0  0
   -9.0461    1.5581  -24.7202 C   0  0  0  0  0  0  0  0  0  0  0  0
   -8.2083    2.2277  -23.6753 C   0  0  0  0  0  0  0  0  0  0  0  0
   -6.8690    2.3422  -23.4998 C   0  0  0  0  0  0  0  0  0  0  0  0
   -6.6583    3.0479  -22.3378 N   0  0  0  0  0  4  0  0  0  0  0  0
   -7.8398    3.3544  -21.8061 C   0  0  0  0  0  0  0  0  0  0  0  0
   -8.7973    2.8661  -22.5985 N   0  0  0  0  0  0  0  0  0  0  0  0
   -9.7725    2.8364  -22.3299 H   0  0  0  0  0  0  0  0  0  0  0  0
   -8.0487    3.9366  -20.9316 H   0  0  0  0  0  0  0  0  0  0  0  0
   -5.7395    3.1190  -21.9167 H   0  0  0  0  0  0  0  0  0  0  0  0
   -6.0273    1.9553  -24.0522 H   0  0  0  0  0  0  0  0  0  0  0  0
   -9.8509    2.2179  -25.0596 H   0  0  0  0  0  0  0  0  0  0  0  0
   -8.4424    1.2949  -25.5961 H   0  0  0  0  0  0  0  0  0  0  0  0
  -11.0331    0.3115  -24.0236 C   0  0  0  0  0  0  0  0  0  0  0  0
  -11.7867    1.1925  -24.4129 O   0  0  0  0  0  0  0  0  0  0  0  0
  -11.5285   -0.8830  -23.2667 C   0  0  0  0  0  0  0  0  0  0  0  0
  -12.9078   -1.0201  -23.1236 C   0  0  0  0  0  0  0  0  0  0  0  0
  -13.4289   -2.0014  -22.3079 C   0  0  0  0  0  0  0  0  0  0  0  0
  -12.5418   -2.8339  -21.6275 C   0  0  0  0  0  0  0  0  0  0  0  0
  -13.1830   -3.9635  -20.4744 Cl  0  0  0  0  0  0  0  0  0  0  0  0
  -11.1732   -2.7543  -21.8120 C   0  0  0  0  0  0  0  0  0  0  0  0
  -10.6383   -1.7820  -22.6615 C   0  0  0  0  0  0  0  0  0  0  0  0
  -10.5301   -3.4428  -21.2748 H   0  0  0  0  0  0  0  0  0  0  0  0
  -14.4973   -2.1170  -22.1607 H   0  0  0  0  0  0  0  0  0  0  0  0
  -13.5464   -0.3141  -23.6417 H   0  0  0  0  0  0  0  0  0  0  0  0
   -9.0700   -1.5010  -24.9413 H   0  0  0  0  0  0  0  0  0  0  0  0
   -7.8077   -0.5364  -24.1513 H   0  0  0  0  0  0  0  0  0  0  0  0
   -6.1735   -2.3390  -22.6459 H   0  0  0  0  0  0  0  0  0  0  0  0
   -6.7021   -3.3493  -21.2887 H   0  0  0  0  0  0  0  0  0  0  0  0
   -8.8327   -3.6529  -22.1517 H   0  0  0  0  0  0  0  0  0  0  0  0
   -8.9276   -3.7318  -24.6472 H   0  0  0  0  0  0  0  0  0  0  0  0
   -7.3477   -2.9075  -24.6893 H   0  0  0  0  0  0  0  0  0  0  0  0
   -6.5449   -6.4078  -24.7748 H   0  0  0  0  0  0  0  0  0  0  0  0
   -7.9002   -5.6687  -25.6602 H   0  0  0  0  0  0  0  0  0  0  0  0
   -6.2953   -4.8778  -25.6486 H   0  0  0  0  0  0  0  0  0  0  0  0
  1  2  1  0
  2  3  1  0
  3  4  1  0
  4  5  1  0
  5  6  1  0
  6  7  1  0
  7  8  2  0
  8  9  1  0
  9 10  2  0
 10 11  1  0
 11 12  2  0
 12 13  1  0
 13 14  2  0
 14 15  1  0
 15 16  2  0
 15 17  1  0
 14 18  1  0
 13 19  1  0
 12 20  1  0
 10 21  1  0
  8 22  1  0
  6 23  1  0
 23 24  2  0
 23 25  1  0
 25 26  1  6
 26 27  1  0
 27 28  1  0
 28 29  1  0
 29 30  2  0
 30 31  1  0
 31 32  2  0
 32 33  1  0
 33 34  1  0
 32 35  1  0
 31 36  1  0
 30 37  1  0
 28 38  1  0
 28 39  1  0
 27 40  1  0
 40 41  2  0
 40 42  1  0
 42 43  2  0
 43 44  1  0
 44 45  2  0
 45 46  1  0
 45 47  1  0
 47 48  2  0
 47 49  1  0
 44 50  1  0
 43 51  1  0
 26 52  1  0
 26 53  1  0
  5 54  1  0
  5 55  1  0
  4 56  1  1
  3 57  1  0
  3 58  1  0
  1 59  1  0
  1 60  1  0
  1 61  1  0
 25  4  1  0
 33 29  1  0
 48 42  1  0
 16  7  1  0
 48 25  1  0
 16 11  1  0
M  CHG  1  31   1
M  END
>  <cnnaffinities>  (53) 
[6.72673, 6.5438]

>  <score>  (53) 
6.72673

>  <index>  (53) 
55

>  <Smiles>  (53) 
C(OC([C@]1(C(N(c2c(nc(c3c(c(c(c(c23)[H])[H])[H])[H])[H])[H])C(=O)[C@]21C(N(C(c1c([n+](c(n1[H])[H])[H])[H])([H])[H])C(=O)c1c(c(c(Cl)c(c21)[H])[H])[H])([H])[H])([H])[H])[H])([H])[H])([H])([H])[H]

>  <h>  (53) 
<NA>

>  <Training>  (53) 
True

>  <Success>  (53) 
True

>  <enamine_searched>  (53) 
False

>  <enamine_id>  (53) 
nan

$$$$

     RDKit          3D

 57 62  0  0  0  0  0  0  0  0999 V2000
  -10.4315   -1.0413  -23.3191 C   0  0  0  0  0  0  0  0  0  0  0  0
   -8.9993   -1.4227  -22.9638 C   0  0  1  0  0  0  0  0  0  0  0  0
   -8.3886   -0.4940  -21.8993 C   0  0  0  0  0  0  0  0  0  0  0  0
   -7.3980   -1.3332  -21.2514 N   0  0  0  0  0  0  0  0  0  0  0  0
   -6.5750   -0.8522  -20.2040 C   0  0  0  0  0  0  0  0  0  0  0  0
   -6.8830   -1.1075  -18.8928 C   0  0  0  0  0  0  0  0  0  0  0  0
   -6.2085   -0.5770  -17.8437 N   0  0  0  0  0  0  0  0  0  0  0  0
   -5.1958    0.2120  -18.0973 C   0  0  0  0  0  0  0  0  0  0  0  0
   -4.7486    0.5338  -19.4101 C   0  0  0  0  0  0  0  0  0  0  0  0
   -3.6199    1.3618  -19.6458 C   0  0  0  0  0  0  0  0  0  0  0  0
   -3.2183    1.6245  -20.9271 C   0  0  0  0  0  0  0  0  0  0  0  0
   -3.9176    1.0707  -22.0239 C   0  0  0  0  0  0  0  0  0  0  0  0
   -5.0121    0.2669  -21.8209 C   0  0  0  0  0  0  0  0  0  0  0  0
   -5.4560   -0.0135  -20.5028 C   0  0  0  0  0  0  0  0  0  0  0  0
   -5.5383   -0.1811  -22.6585 H   0  0  0  0  0  0  0  0  0  0  0  0
   -3.5862    1.2755  -23.0373 H   0  0  0  0  0  0  0  0  0  0  0  0
   -2.3571    2.2602  -21.1128 H   0  0  0  0  0  0  0  0  0  0  0  0
   -3.0867    1.7745  -18.7932 H   0  0  0  0  0  0  0  0  0  0  0  0
   -4.6651    0.6300  -17.2408 H   0  0  0  0  0  0  0  0  0  0  0  0
   -7.7202   -1.7544  -18.6380 H   0  0  0  0  0  0  0  0  0  0  0  0
   -7.5942   -2.6828  -21.4649 C   0  0  0  0  0  0  0  0  0  0  0  0
   -6.8940   -3.5539  -20.9949 O   0  0  0  0  0  0  0  0  0  0  0  0
   -8.7988   -2.8792  -22.4034 C   0  0  1  0  0  0  0  0  0  0  0  0
  -10.0071   -3.3351  -21.5418 C   0  0  0  0  0  0  0  0  0  0  0  0
  -11.1199   -3.8702  -22.3248 N   0  0  0  0  0  0  0  0  0  0  0  0
  -12.4872   -3.8524  -21.8093 C   0  0  0  0  0  0  0  0  0  0  0  0
  -13.3130   -2.7804  -22.4509 C   0  0  0  0  0  0  0  0  0  0  0  0
  -13.7884   -3.0868  -23.6707 N   0  0  0  0  0  0  0  0  0  0  0  0
  -14.5248   -2.1575  -24.2546 C   0  0  0  0  0  0  0  0  0  0  0  0
  -14.7881   -0.9571  -23.6309 C   0  0  0  0  0  0  0  0  0  0  0  0
  -14.2598   -0.7486  -22.3853 C   0  0  0  0  0  0  0  0  0  0  0  0
  -13.4945   -1.6531  -21.7734 N   0  0  0  0  0  0  0  0  0  0  0  0
  -14.4688    0.1879  -21.8820 H   0  0  0  0  0  0  0  0  0  0  0  0
  -15.3722   -0.1957  -24.0839 H   0  0  0  0  0  0  0  0  0  0  0  0
  -14.9233   -2.3603  -25.2462 H   0  0  0  0  0  0  0  0  0  0  0  0
  -12.9569   -4.7718  -22.1442 H   0  0  0  0  0  0  0  0  0  0  0  0
  -12.4743   -3.7742  -20.7230 H   0  0  0  0  0  0  0  0  0  0  0  0
  -10.9035   -4.6909  -23.3970 C   0  0  0  0  0  0  0  0  0  0  0  0
  -11.8063   -5.3146  -23.9368 O   0  0  0  0  0  0  0  0  0  0  0  0
   -9.5090   -4.7829  -23.9099 C   0  0  0  0  0  0  0  0  0  0  0  0
   -9.2601   -5.7535  -24.8818 C   0  0  0  0  0  0  0  0  0  0  0  0
   -8.0006   -5.9014  -25.4271 C   0  0  0  0  0  0  0  0  0  0  0  0
   -7.0005   -5.0359  -24.9945 C   0  0  0  0  0  0  0  0  0  0  0  0
   -5.7658   -5.1753  -25.5072 F   0  0  0  0  0  0  0  0  0  0  0  0
   -7.2175   -4.0757  -24.0222 C   0  0  0  0  0  0  0  0  0  0  0  0
   -8.4970   -3.9319  -23.4574 C   0  0  0  0  0  0  0  0  0  0  0  0
   -6.3680   -3.4944  -23.6779 H   0  0  0  0  0  0  0  0  0  0  0  0
   -7.7889   -6.6768  -26.1572 H   0  0  0  0  0  0  0  0  0  0  0  0
  -10.0783   -6.3977  -25.1935 H   0  0  0  0  0  0  0  0  0  0  0  0
   -9.6569   -4.0828  -20.8255 H   0  0  0  0  0  0  0  0  0  0  0  0
  -10.3301   -2.4599  -20.9674 H   0  0  0  0  0  0  0  0  0  0  0  0
   -7.9302    0.4028  -22.3299 H   0  0  0  0  0  0  0  0  0  0  0  0
   -9.1496   -0.1372  -21.1847 H   0  0  0  0  0  0  0  0  0  0  0  0
   -8.3747   -1.3707  -23.8657 H   0  0  0  0  0  0  0  0  0  0  0  0
  -10.4829   -0.0775  -23.8350 H   0  0  0  0  0  0  0  0  0  0  0  0
  -11.0491   -0.9585  -22.4185 H   0  0  0  0  0  0  0  0  0  0  0  0
  -10.8811   -1.8016  -23.9639 H   0  0  0  0  0  0  0  0  0  0  0  0
  1  2  1  0
  2  3  1  0
  3  4  1  0
  4  5  1  0
  5  6  2  0
  6  7  1  0
  7  8  2  0
  8  9  1  0
  9 10  2  0
 10 11  1  0
 11 12  2  0
 12 13  1  0
 13 14  2  0
 13 15  1  0
 12 16  1  0
 11 17  1  0
 10 18  1  0
  8 19  1  0
  6 20  1  0
  4 21  1  0
 21 22  2  0
 21 23  1  0
 23 24  1  1
 24 25  1  0
 25 26  1  0
 26 27  1  0
 27 28  2  0
 28 29  1  0
 29 30  2  0
 30 31  1  0
 31 32  2  0
 31 33  1  0
 30 34  1  0
 29 35  1  0
 26 36  1  0
 26 37  1  0
 25 38  1  0
 38 39  2  0
 38 40  1  0
 40 41  2  0
 41 42  1  0
 42 43  2  0
 43 44  1  0
 43 45  1  0
 45 46  2  0
 45 47  1  0
 42 48  1  0
 41 49  1  0
 24 50  1  0
 24 51  1  0
  3 52  1  0
  3 53  1  0
  2 54  1  6
  1 55  1  0
  1 56  1  0
  1 57  1  0
 23  2  1  0
 32 27  1  0
 46 40  1  0
 14  5  1  0
 46 23  1  0
 14  9  1  0
M  END
>  <cnnaffinities>  (54) 
[6.88147]

>  <score>  (54) 
6.88147

>  <index>  (54) 
56

>  <Smiles>  (54) 
C([C@]1(C(N(c2c(nc(c3c(c(c(c(c23)[H])[H])[H])[H])[H])[H])C(=O)[C@]21C(N(C(c1nc(c(c(n1)[H])[H])[H])([H])[H])C(=O)c1c(c(c(F)c(c21)[H])[H])[H])([H])[H])([H])[H])[H])([H])([H])[H]

>  <h>  (54) 
<NA>

>  <Training>  (54) 
True

>  <Success>  (54) 
True

>  <enamine_searched>  (54) 
False

>  <enamine_id>  (54) 
nan

$$$$

     RDKit          3D

 59 63  0  0  0  0  0  0  0  0999 V2000
  -14.5159   -1.2720  -23.5972 C   0  0  0  0  0  0  0  0  0  0  0  0
  -13.7680   -2.4452  -23.1977 N   0  0  0  0  0  0  0  0  0  0  0  0
  -13.4773   -2.6608  -21.8870 C   0  0  0  0  0  0  0  0  0  0  0  0
  -13.9419   -1.9669  -20.9996 O   0  0  0  0  0  0  0  0  0  0  0  0
  -12.5384   -3.8416  -21.6046 C   0  0  0  0  0  0  0  0  0  0  0  0
  -11.2159   -3.7717  -22.2173 N   0  0  0  0  0  0  0  0  0  0  0  0
  -10.0662   -3.2881  -21.4525 C   0  0  0  0  0  0  0  0  0  0  0  0
   -8.8397   -2.9303  -22.3350 C   0  0  2  0  0  0  0  0  0  0  0  0
   -7.6046   -2.7069  -21.4409 C   0  0  0  0  0  0  0  0  0  0  0  0
   -6.8639   -3.5624  -20.9934 O   0  0  0  0  0  0  0  0  0  0  0  0
   -7.4075   -1.3555  -21.2626 N   0  0  0  0  0  0  0  0  0  0  0  0
   -6.5917   -0.8549  -20.2139 C   0  0  0  0  0  0  0  0  0  0  0  0
   -6.8956   -1.1034  -18.8981 C   0  0  0  0  0  0  0  0  0  0  0  0
   -6.2206   -0.5727  -17.8478 N   0  0  0  0  0  0  0  0  0  0  0  0
   -5.2058    0.2100  -18.1049 C   0  0  0  0  0  0  0  0  0  0  0  0
   -4.7585    0.5237  -19.4180 C   0  0  0  0  0  0  0  0  0  0  0  0
   -3.6277    1.3491  -19.6465 C   0  0  0  0  0  0  0  0  0  0  0  0
   -3.2188    1.6173  -20.9227 C   0  0  0  0  0  0  0  0  0  0  0  0
   -3.9186    1.0725  -22.0239 C   0  0  0  0  0  0  0  0  0  0  0  0
   -5.0178    0.2739  -21.8258 C   0  0  0  0  0  0  0  0  0  0  0  0
   -5.4699   -0.0178  -20.5132 C   0  0  0  0  0  0  0  0  0  0  0  0
   -5.5439   -0.1533  -22.6731 H   0  0  0  0  0  0  0  0  0  0  0  0
   -3.5837    1.2836  -23.0346 H   0  0  0  0  0  0  0  0  0  0  0  0
   -2.3576    2.2549  -21.1009 H   0  0  0  0  0  0  0  0  0  0  0  0
   -3.1016    1.7587  -18.7869 H   0  0  0  0  0  0  0  0  0  0  0  0
   -4.6705    0.6276  -17.2504 H   0  0  0  0  0  0  0  0  0  0  0  0
   -7.7319   -1.7487  -18.6407 H   0  0  0  0  0  0  0  0  0  0  0  0
   -8.4129   -0.5469  -21.9290 C   0  0  0  0  0  0  0  0  0  0  0  0
   -9.0121   -1.4861  -23.0074 C   0  0  0  0  0  0  0  0  0  0  0  0
  -10.4597   -1.0829  -23.3034 C   0  0  0  0  0  0  0  0  0  0  0  0
  -11.0735   -1.0715  -22.3983 H   0  0  0  0  0  0  0  0  0  0  0  0
  -10.9069   -1.7870  -24.0083 H   0  0  0  0  0  0  0  0  0  0  0  0
  -10.4999   -0.0839  -23.7489 H   0  0  0  0  0  0  0  0  0  0  0  0
   -8.2207   -1.4127  -24.3221 C   0  0  0  0  0  0  0  0  0  0  0  0
   -8.6259   -2.1375  -25.0362 H   0  0  0  0  0  0  0  0  0  0  0  0
   -8.3031   -0.4153  -24.7647 H   0  0  0  0  0  0  0  0  0  0  0  0
   -7.1610   -1.6568  -24.1848 H   0  0  0  0  0  0  0  0  0  0  0  0
   -7.9629    0.3548  -22.3562 H   0  0  0  0  0  0  0  0  0  0  0  0
   -9.1891   -0.2164  -21.2176 H   0  0  0  0  0  0  0  0  0  0  0  0
   -8.6013   -4.1007  -23.2653 C   0  0  0  0  0  0  0  0  0  0  0  0
   -7.3176   -4.4625  -23.7042 C   0  0  0  0  0  0  0  0  0  0  0  0
   -7.1613   -5.4700  -24.6414 C   0  0  0  0  0  0  0  0  0  0  0  0
   -5.5630   -5.8537  -25.2275 Cl  0  0  0  0  0  0  0  0  0  0  0  0
   -8.2495   -6.1826  -25.1419 C   0  0  0  0  0  0  0  0  0  0  0  0
   -9.5116   -5.8476  -24.6917 C   0  0  0  0  0  0  0  0  0  0  0  0
   -9.6875   -4.8170  -23.7740 C   0  0  0  0  0  0  0  0  0  0  0  0
  -11.0760   -4.4853  -23.3706 C   0  0  0  0  0  0  0  0  0  0  0  0
  -12.0560   -4.8511  -24.0212 O   0  0  0  0  0  0  0  0  0  0  0  0
  -10.3919   -6.3784  -25.0356 H   0  0  0  0  0  0  0  0  0  0  0  0
   -8.1035   -6.9803  -25.8628 H   0  0  0  0  0  0  0  0  0  0  0  0
   -6.4346   -3.9725  -23.3125 H   0  0  0  0  0  0  0  0  0  0  0  0
  -10.3514   -2.3803  -20.9162 H   0  0  0  0  0  0  0  0  0  0  0  0
   -9.7838   -4.0453  -20.7160 H   0  0  0  0  0  0  0  0  0  0  0  0
  -12.4726   -4.0205  -20.5274 H   0  0  0  0  0  0  0  0  0  0  0  0
  -13.0326   -4.6929  -22.0734 H   0  0  0  0  0  0  0  0  0  0  0  0
  -13.4641   -3.1165  -23.8919 H   0  0  0  0  0  0  0  0  0  0  0  0
  -13.9016   -0.3615  -23.5766 H   0  0  0  0  0  0  0  0  0  0  0  0
  -14.8973   -1.4425  -24.6067 H   0  0  0  0  0  0  0  0  0  0  0  0
  -15.3430   -1.0992  -22.9051 H   0  0  0  0  0  0  0  0  0  0  0  0
  1  2  1  0
  2  3  1  0
  3  4  2  0
  3  5  1  0
  5  6  1  0
  6  7  1  0
  8  7  1  1
  8  9  1  0
  9 10  2  0
  9 11  1  0
 11 12  1  0
 12 13  2  0
 13 14  1  0
 14 15  2  0
 15 16  1  0
 16 17  2  0
 17 18  1  0
 18 19  2  0
 19 20  1  0
 20 21  2  0
 20 22  1  0
 19 23  1  0
 18 24  1  0
 17 25  1  0
 15 26  1  0
 13 27  1  0
 11 28  1  0
 28 29  1  0
 29 30  1  0
 30 31  1  0
 30 32  1  0
 30 33  1  0
 29 34  1  0
 34 35  1  0
 34 36  1  0
 34 37  1  0
 28 38  1  0
 28 39  1  0
  8 40  1  0
 40 41  2  0
 41 42  1  0
 42 43  1  0
 42 44  2  0
 44 45  1  0
 45 46  2  0
 46 47  1  0
 47 48  2  0
 45 49  1  0
 44 50  1  0
 41 51  1  0
  7 52  1  0
  7 53  1  0
  5 54  1  0
  5 55  1  0
  2 56  1  0
  1 57  1  0
  1 58  1  0
  1 59  1  0
 47  6  1  0
 29  8  1  0
 46 40  1  0
 21 12  1  0
 21 16  1  0
M  END
>  <cnnaffinities>  (55) 
[6.70472]

>  <score>  (55) 
6.70472

>  <index>  (55) 
57

>  <Smiles>  (55) 
C(N(C(=O)C(N1C([C@@]2(C(=O)N(c3c(nc(c4c(c(c(c(c34)[H])[H])[H])[H])[H])[H])C(C2(C([H])([H])[H])C([H])([H])[H])([H])[H])c2c(c(Cl)c(c(c2C1=O)[H])[H])[H])([H])[H])([H])[H])[H])([H])([H])[H]

>  <h>  (55) 
<NA>

>  <Training>  (55) 
True

>  <Success>  (55) 
True

>  <enamine_searched>  (55) 
False

>  <enamine_id>  (55) 
nan

$$$$

     RDKit          3D

 42 45  0  0  0  0  0  0  0  0999 V2000
  -12.0151   -4.1633  -22.9381 C   0  0  0  0  0  0  0  0  0  0  0  0
  -10.5911   -4.4370  -22.9129 N   0  0  0  0  0  0  0  0  0  0  0  0
   -9.7394   -3.9696  -21.8415 C   0  0  0  0  0  0  0  0  0  0  0  0
   -8.6027   -3.1063  -22.4252 C   0  0  1  0  0  0  0  0  0  0  0  0
   -7.5936   -2.6496  -21.3764 C   0  0  0  0  0  0  0  0  0  0  0  0
   -6.9020   -3.4263  -20.7488 O   0  0  0  0  0  0  0  0  0  0  0  0
   -7.4580   -1.2844  -21.2168 N   0  0  0  0  0  0  0  0  0  0  0  0
   -6.6214   -0.7669  -20.2015 C   0  0  0  0  0  0  0  0  0  0  0  0
   -6.9071   -1.0396  -18.8894 C   0  0  0  0  0  0  0  0  0  0  0  0
   -6.2127   -0.5434  -17.8391 N   0  0  0  0  0  0  0  0  0  0  0  0
   -5.1797    0.2198  -18.0982 C   0  0  0  0  0  0  0  0  0  0  0  0
   -4.7493    0.5543  -19.4126 C   0  0  0  0  0  0  0  0  0  0  0  0
   -3.6059    1.3575  -19.6458 C   0  0  0  0  0  0  0  0  0  0  0  0
   -3.1918    1.6226  -20.9227 C   0  0  0  0  0  0  0  0  0  0  0  0
   -3.8978    1.0814  -22.0212 C   0  0  0  0  0  0  0  0  0  0  0  0
   -5.0108    0.3056  -21.8245 C   0  0  0  0  0  0  0  0  0  0  0  0
   -5.4777    0.0390  -20.5099 C   0  0  0  0  0  0  0  0  0  0  0  0
   -5.5216   -0.1280  -22.6814 H   0  0  0  0  0  0  0  0  0  0  0  0
   -3.5560    1.2913  -23.0310 H   0  0  0  0  0  0  0  0  0  0  0  0
   -2.3314    2.2596  -21.0988 H   0  0  0  0  0  0  0  0  0  0  0  0
   -3.0733    1.7547  -18.7875 H   0  0  0  0  0  0  0  0  0  0  0  0
   -4.6187    0.6053  -17.2454 H   0  0  0  0  0  0  0  0  0  0  0  0
   -7.7493   -1.6887  -18.6532 H   0  0  0  0  0  0  0  0  0  0  0  0
   -7.7816   -0.6480  -21.9362 H   0  0  0  0  0  0  0  0  0  0  0  0
   -7.8933   -3.9266  -23.4782 C   0  0  0  0  0  0  0  0  0  0  0  0
   -6.5460   -3.7172  -23.7550 C   0  0  0  0  0  0  0  0  0  0  0  0
   -5.9281   -4.4486  -24.7514 C   0  0  0  0  0  0  0  0  0  0  0  0
   -4.2584   -4.1331  -25.1044 Cl  0  0  0  0  0  0  0  0  0  0  0  0
   -6.6127   -5.4218  -25.4759 C   0  0  0  0  0  0  0  0  0  0  0  0
   -7.9473   -5.6475  -25.1799 C   0  0  0  0  0  0  0  0  0  0  0  0
   -8.5858   -4.9073  -24.1865 C   0  0  0  0  0  0  0  0  0  0  0  0
  -10.0498   -5.1280  -23.9631 C   0  0  0  0  0  0  0  0  0  0  0  0
  -10.7074   -5.8572  -24.6927 O   0  0  0  0  0  0  0  0  0  0  0  0
   -8.5265   -6.3962  -25.7116 H   0  0  0  0  0  0  0  0  0  0  0  0
   -6.1059   -5.9836  -26.2539 H   0  0  0  0  0  0  0  0  0  0  0  0
   -5.9820   -2.9896  -23.1819 H   0  0  0  0  0  0  0  0  0  0  0  0
   -9.0547   -2.2081  -22.8726 H   0  0  0  0  0  0  0  0  0  0  0  0
  -10.3474   -3.3885  -21.1503 H   0  0  0  0  0  0  0  0  0  0  0  0
   -9.3299   -4.8249  -21.2880 H   0  0  0  0  0  0  0  0  0  0  0  0
  -12.3795   -3.9671  -21.9224 H   0  0  0  0  0  0  0  0  0  0  0  0
  -12.2283   -3.3020  -23.5842 H   0  0  0  0  0  0  0  0  0  0  0  0
  -12.5115   -5.0386  -23.3557 H   0  0  0  0  0  0  0  0  0  0  0  0
  1  2  1  0
  2  3  1  0
  3  4  1  0
  4  5  1  0
  5  6  2  0
  5  7  1  0
  7  8  1  0
  8  9  2  0
  9 10  1  0
 10 11  2  0
 11 12  1  0
 12 13  2  0
 13 14  1  0
 14 15  2  0
 15 16  1  0
 16 17  2  0
 16 18  1  0
 15 19  1  0
 14 20  1  0
 13 21  1  0
 11 22  1  0
  9 23  1  0
  7 24  1  0
  4 25  1  0
 25 26  2  0
 26 27  1  0
 27 28  1  0
 27 29  2  0
 29 30  1  0
 30 31  2  0
 31 32  1  0
 32 33  2  0
 30 34  1  0
 29 35  1  0
 26 36  1  0
  4 37  1  6
  3 38  1  0
  3 39  1  0
  1 40  1  0
  1 41  1  0
  1 42  1  0
 32  2  1  0
 17  8  1  0
 31 25  1  0
 17 12  1  0
M  END
>  <cnnaffinities>  (56) 
[5.61473, 5.41308, 5.45168, 5.22605]

>  <score>  (56) 
5.61473

>  <index>  (56) 
58

>  <Smiles>  (56) 
C(N1C([C@@](C(=O)N(c2c(nc(c3c(c(c(c(c23)[H])[H])[H])[H])[H])[H])[H])(c2c(c(Cl)c(c(c2C1=O)[H])[H])[H])[H])([H])[H])([H])([H])[H]

>  <h>  (56) 
<NA>

>  <Training>  (56) 
True

>  <Success>  (56) 
True

>  <enamine_searched>  (56) 
False

>  <enamine_id>  (56) 
nan

$$$$

     RDKit          3D

 60 65  0  0  0  0  0  0  0  0999 V2000
   -7.0858    3.4614  -22.7548 C   0  0  0  0  0  0  0  0  0  0  0  0
   -7.7968    2.7614  -23.8072 N   0  0  0  0  0  0  0  0  0  0  0  0
   -7.1409    1.8562  -24.5771 C   0  0  0  0  0  0  0  0  0  0  0  0
   -5.9255    1.7300  -24.5568 O   0  0  0  0  0  0  0  0  0  0  0  0
   -8.0155    1.0265  -25.5186 C   0  0  0  0  0  0  0  0  0  0  0  0
   -8.9288    0.1509  -24.8243 N   0  0  0  0  0  0  0  0  0  0  0  0
   -8.4496   -1.1328  -24.3548 C   0  0  0  0  0  0  0  0  0  0  0  0
   -8.9900   -1.4899  -22.9555 C   0  0  2  0  0  0  0  0  0  0  0  0
   -8.3073   -0.6104  -21.8916 C   0  0  0  0  0  0  0  0  0  0  0  0
   -8.5014    0.5677  -21.6776 O   0  0  0  0  0  0  0  0  0  0  0  0
   -7.4066   -1.3782  -21.1995 N   0  0  0  0  0  0  0  0  0  0  0  0
   -6.5963   -0.8222  -20.1833 C   0  0  0  0  0  0  0  0  0  0  0  0
   -6.8958   -1.0700  -18.8669 C   0  0  0  0  0  0  0  0  0  0  0  0
   -6.2038   -0.5593  -17.8226 N   0  0  0  0  0  0  0  0  0  0  0  0
   -5.1776    0.2108  -18.0891 C   0  0  0  0  0  0  0  0  0  0  0  0
   -4.7459    0.5264  -19.4087 C   0  0  0  0  0  0  0  0  0  0  0  0
   -3.6132    1.3496  -19.6442 C   0  0  0  0  0  0  0  0  0  0  0  0
   -3.2052    1.6246  -20.9228 C   0  0  0  0  0  0  0  0  0  0  0  0
   -3.9166    1.0936  -22.0231 C   0  0  0  0  0  0  0  0  0  0  0  0
   -5.0183    0.2966  -21.8203 C   0  0  0  0  0  0  0  0  0  0  0  0
   -5.4675   -0.0039  -20.5009 C   0  0  0  0  0  0  0  0  0  0  0  0
   -5.5394   -0.1125  -22.6801 H   0  0  0  0  0  0  0  0  0  0  0  0
   -3.6124    1.3228  -23.0410 H   0  0  0  0  0  0  0  0  0  0  0  0
   -2.3381    2.2571  -21.0968 H   0  0  0  0  0  0  0  0  0  0  0  0
   -3.0839    1.7533  -18.7874 H   0  0  0  0  0  0  0  0  0  0  0  0
   -4.6165    0.6132  -17.2450 H   0  0  0  0  0  0  0  0  0  0  0  0
   -7.7539   -1.6938  -18.6121 H   0  0  0  0  0  0  0  0  0  0  0  0
   -7.3144   -2.7426  -21.6544 C   0  0  0  0  0  0  0  0  0  0  0  0
   -8.5538   -2.9266  -22.5384 C   0  0  2  0  0  0  0  0  0  0  0  0
   -8.3038   -3.9538  -23.6649 C   0  0  0  0  0  0  0  0  0  0  0  0
   -8.0104   -5.3065  -23.1135 C   0  0  0  0  0  0  0  0  0  0  0  0
   -6.7942   -5.7776  -22.8616 N   0  0  0  0  0  0  0  0  0  0  0  0
   -7.0021   -6.9781  -22.3287 N   0  0  0  0  0  0  0  0  0  0  0  0
   -8.2878   -7.2114  -22.2697 N   0  0  0  0  0  2  0  0  0  0  0  0
   -8.9489   -6.1704  -22.7616 N   0  0  0  0  0  0  0  0  0  0  0  0
   -7.4505   -3.6554  -24.2781 H   0  0  0  0  0  0  0  0  0  0  0  0
   -9.1803   -4.0444  -24.3118 H   0  0  0  0  0  0  0  0  0  0  0  0
   -9.3585   -3.3402  -21.9293 H   0  0  0  0  0  0  0  0  0  0  0  0
   -6.3991   -2.9113  -22.2375 H   0  0  0  0  0  0  0  0  0  0  0  0
   -7.2942   -3.4361  -20.8130 H   0  0  0  0  0  0  0  0  0  0  0  0
  -10.4879   -1.2423  -22.9518 C   0  0  0  0  0  0  0  0  0  0  0  0
  -11.3145   -1.8424  -21.9973 C   0  0  0  0  0  0  0  0  0  0  0  0
  -12.6827   -1.6326  -22.0353 C   0  0  0  0  0  0  0  0  0  0  0  0
  -13.6960   -2.5232  -20.9303 Cl  0  0  0  0  0  0  0  0  0  0  0  0
  -13.2683   -0.7409  -22.9363 C   0  0  0  0  0  0  0  0  0  0  0  0
  -12.4520   -0.0869  -23.8388 C   0  0  0  0  0  0  0  0  0  0  0  0
  -11.0774   -0.3245  -23.8313 C   0  0  0  0  0  0  0  0  0  0  0  0
  -10.2430    0.5113  -24.7403 C   0  0  0  0  0  0  0  0  0  0  0  0
  -10.7024    1.4808  -25.3291 O   0  0  0  0  0  0  0  0  0  0  0  0
  -12.8437    0.6281  -24.5587 H   0  0  0  0  0  0  0  0  0  0  0  0
  -14.3336   -0.5410  -22.8779 H   0  0  0  0  0  0  0  0  0  0  0  0
  -10.8981   -2.4328  -21.1893 H   0  0  0  0  0  0  0  0  0  0  0  0
   -7.3567   -1.1011  -24.3318 H   0  0  0  0  0  0  0  0  0  0  0  0
   -8.7643   -1.9174  -25.0504 H   0  0  0  0  0  0  0  0  0  0  0  0
   -8.6372    1.6874  -26.1276 H   0  0  0  0  0  0  0  0  0  0  0  0
   -7.3344    0.4491  -26.1477 H   0  0  0  0  0  0  0  0  0  0  0  0
   -8.7994    2.7091  -23.7290 H   0  0  0  0  0  0  0  0  0  0  0  0
   -7.7790    4.0839  -22.1862 H   0  0  0  0  0  0  0  0  0  0  0  0
   -6.3134    4.1028  -23.1782 H   0  0  0  0  0  0  0  0  0  0  0  0
   -6.5965    2.7568  -22.0751 H   0  0  0  0  0  0  0  0  0  0  0  0
  1  2  1  0
  2  3  1  0
  3  4  2  0
  3  5  1  0
  5  6  1  0
  6  7  1  0
  8  7  1  6
  8  9  1  0
  9 10  2  0
  9 11  1  0
 11 12  1  0
 12 13  2  0
 13 14  1  0
 14 15  2  0
 15 16  1  0
 16 17  2  0
 17 18  1  0
 18 19  2  0
 19 20  1  0
 20 21  2  0
 20 22  1  0
 19 23  1  0
 18 24  1  0
 17 25  1  0
 15 26  1  0
 13 27  1  0
 11 28  1  0
 28 29  1  0
 29 30  1  0
 30 31  1  0
 31 32  1  0
 32 33  2  0
 33 34  1  0
 34 35  1  0
 30 36  1  0
 30 37  1  0
 29 38  1  1
 28 39  1  0
 28 40  1  0
  8 41  1  0
 41 42  2  0
 42 43  1  0
 43 44  1  0
 43 45  2  0
 45 46  1  0
 46 47  2  0
 47 48  1  0
 48 49  2  0
 46 50  1  0
 45 51  1  0
 42 52  1  0
  7 53  1  0
  7 54  1  0
  5 55  1  0
  5 56  1  0
  2 57  1  0
  1 58  1  0
  1 59  1  0
  1 60  1  0
 48  6  1  0
 29  8  1  0
 35 31  2  0
 47 41  1  0
 21 12  1  0
 21 16  1  0
M  CHG  1  34  -1
M  END
>  <cnnaffinities>  (57) 
[6.797, 6.72046, 6.70972]

>  <score>  (57) 
6.797

>  <index>  (57) 
59

>  <Smiles>  (57) 
C(N(C(=O)C(N1C([C@@]2(C(=O)N(c3c(nc(c4c(c(c(c(c34)[H])[H])[H])[H])[H])[H])C([C@@]2(C(c2nn[n-]n2)([H])[H])[H])([H])[H])c2c(c(Cl)c(c(c2C1=O)[H])[H])[H])([H])[H])([H])[H])[H])([H])([H])[H]

>  <h>  (57) 
<NA>

>  <Training>  (57) 
True

>  <Success>  (57) 
True

>  <enamine_searched>  (57) 
False

>  <enamine_id>  (57) 
nan

$$$$

     RDKit          3D

 62 67  0  0  0  0  0  0  0  0999 V2000
  -11.3178    4.3027  -25.2303 C   0  0  0  0  0  0  0  0  0  0  0  0
   -9.8241    4.1722  -25.5272 C   0  0  0  0  0  0  0  0  0  0  0  0
   -9.0690    3.5907  -24.4244 N   0  0  0  0  0  0  0  0  0  0  0  0
   -8.4886    4.4137  -23.5371 N   0  0  0  0  0  0  0  0  0  0  0  0
   -7.9032    3.6204  -22.6503 C   0  0  0  0  0  0  0  0  0  0  0  0
   -8.1109    2.2653  -22.9711 C   0  0  0  0  0  0  0  0  0  0  0  0
   -8.8904    2.2772  -24.1053 C   0  0  0  0  0  0  0  0  0  0  0  0
   -9.3904    1.1047  -24.9076 C   0  0  0  0  0  0  0  0  0  0  0  0
   -9.8514    0.0035  -24.0835 N   0  0  0  0  0  0  0  0  0  0  0  0
   -9.0394   -1.1942  -23.9798 C   0  0  0  0  0  0  0  0  0  0  0  0
   -9.2254   -1.9120  -22.6162 C   0  0  2  0  0  0  0  0  0  0  0  0
   -8.6617   -1.0277  -21.4696 C   0  0  0  0  0  0  0  0  0  0  0  0
   -9.2269   -0.1060  -20.9098 O   0  0  0  0  0  0  0  0  0  0  0  0
   -7.3763   -1.4349  -21.1929 N   0  0  0  0  0  0  0  0  0  0  0  0
   -6.5993   -0.8246  -20.1692 C   0  0  0  0  0  0  0  0  0  0  0  0
   -6.9053   -1.0473  -18.8495 C   0  0  0  0  0  0  0  0  0  0  0  0
   -6.1941   -0.5447  -17.8123 N   0  0  0  0  0  0  0  0  0  0  0  0
   -5.1626    0.2087  -18.0837 C   0  0  0  0  0  0  0  0  0  0  0  0
   -4.7297    0.5287  -19.4001 C   0  0  0  0  0  0  0  0  0  0  0  0
   -3.6060    1.3643  -19.6428 C   0  0  0  0  0  0  0  0  0  0  0  0
   -3.2262    1.6629  -20.9196 C   0  0  0  0  0  0  0  0  0  0  0  0
   -3.9546    1.1370  -22.0117 C   0  0  0  0  0  0  0  0  0  0  0  0
   -5.0470    0.3262  -21.8012 C   0  0  0  0  0  0  0  0  0  0  0  0
   -5.4658   -0.0043  -20.4870 C   0  0  0  0  0  0  0  0  0  0  0  0
   -5.5976   -0.0642  -22.6532 H   0  0  0  0  0  0  0  0  0  0  0  0
   -3.6572    1.3824  -23.0257 H   0  0  0  0  0  0  0  0  0  0  0  0
   -2.3765    2.3162  -21.1035 H   0  0  0  0  0  0  0  0  0  0  0  0
   -3.0732    1.7693  -18.7846 H   0  0  0  0  0  0  0  0  0  0  0  0
   -4.6135    0.6157  -17.2322 H   0  0  0  0  0  0  0  0  0  0  0  0
   -7.7524   -1.6722  -18.5780 H   0  0  0  0  0  0  0  0  0  0  0  0
   -6.9629   -2.6134  -21.9355 C   0  0  0  0  0  0  0  0  0  0  0  0
   -8.2915   -3.1589  -22.5105 C   0  0  2  0  0  0  0  0  0  0  0  0
   -8.0941   -3.9857  -23.7846 C   0  0  0  0  0  0  0  0  0  0  0  0
   -7.5543   -3.4106  -24.5484 H   0  0  0  0  0  0  0  0  0  0  0  0
   -7.5058   -4.8893  -23.5818 H   0  0  0  0  0  0  0  0  0  0  0  0
   -9.0502   -4.2982  -24.2211 H   0  0  0  0  0  0  0  0  0  0  0  0
   -8.7280   -3.7972  -21.7358 H   0  0  0  0  0  0  0  0  0  0  0  0
   -6.4621   -3.3256  -21.2701 H   0  0  0  0  0  0  0  0  0  0  0  0
   -6.2531   -2.3610  -22.7395 H   0  0  0  0  0  0  0  0  0  0  0  0
  -10.7170   -2.1435  -22.4341 C   0  0  0  0  0  0  0  0  0  0  0  0
  -11.2333   -3.2192  -21.6995 C   0  0  0  0  0  0  0  0  0  0  0  0
  -12.5883   -3.2661  -21.4376 C   0  0  0  0  0  0  0  0  0  0  0  0
  -13.0871   -4.1975  -20.6095 F   0  0  0  0  0  0  0  0  0  0  0  0
  -13.4839   -2.3356  -21.9437 C   0  0  0  0  0  0  0  0  0  0  0  0
  -12.9871   -1.2692  -22.6587 C   0  0  0  0  0  0  0  0  0  0  0  0
  -11.6168   -1.1644  -22.8928 C   0  0  0  0  0  0  0  0  0  0  0  0
  -11.1425    0.0424  -23.6464 C   0  0  0  0  0  0  0  0  0  0  0  0
  -11.8782    0.9936  -23.8701 O   0  0  0  0  0  0  0  0  0  0  0  0
  -13.6341   -0.4796  -23.0255 H   0  0  0  0  0  0  0  0  0  0  0  0
  -14.5349   -2.4728  -21.7247 H   0  0  0  0  0  0  0  0  0  0  0  0
  -10.6021   -3.9849  -21.2623 H   0  0  0  0  0  0  0  0  0  0  0  0
   -9.2985   -1.9061  -24.7820 H   0  0  0  0  0  0  0  0  0  0  0  0
   -7.9934   -0.8945  -24.0906 H   0  0  0  0  0  0  0  0  0  0  0  0
  -10.2045    1.4067  -25.5762 H   0  0  0  0  0  0  0  0  0  0  0  0
   -8.5746    0.7052  -25.5176 H   0  0  0  0  0  0  0  0  0  0  0  0
   -7.7788    1.3715  -22.4635 H   0  0  0  0  0  0  0  0  0  0  0  0
   -7.3643    4.0664  -21.8196 H   0  0  0  0  0  0  0  0  0  0  0  0
   -9.3663    5.1519  -25.7081 H   0  0  0  0  0  0  0  0  0  0  0  0
   -9.6516    3.5480  -26.4133 H   0  0  0  0  0  0  0  0  0  0  0  0
  -11.7704    3.3212  -25.0409 H   0  0  0  0  0  0  0  0  0  0  0  0
  -11.4844    4.9448  -24.3583 H   0  0  0  0  0  0  0  0  0  0  0  0
  -11.8197    4.7598  -26.0897 H   0  0  0  0  0  0  0  0  0  0  0  0
  1  2  1  0
  2  3  1  0
  3  4  1  0
  4  5  2  0
  5  6  1  0
  6  7  2  0
  7  8  1  0
  8  9  1  0
  9 10  1  0
 11 10  1  6
 11 12  1  0
 12 13  2  0
 12 14  1  0
 14 15  1  0
 15 16  2  0
 16 17  1  0
 17 18  2  0
 18 19  1  0
 19 20  2  0
 20 21  1  0
 21 22  2  0
 22 23  1  0
 23 24  2  0
 23 25  1  0
 22 26  1  0
 21 27  1  0
 20 28  1  0
 18 29  1  0
 16 30  1  0
 14 31  1  0
 31 32  1  0
 32 33  1  0
 33 34  1  0
 33 35  1  0
 33 36  1  0
 32 37  1  1
 31 38  1  0
 31 39  1  0
 11 40  1  0
 40 41  2  0
 41 42  1  0
 42 43  1  0
 42 44  2  0
 44 45  1  0
 45 46  2  0
 46 47  1  0
 47 48  2  0
 45 49  1  0
 44 50  1  0
 41 51  1  0
 10 52  1  0
 10 53  1  0
  8 54  1  0
  8 55  1  0
  6 56  1  0
  5 57  1  0
  2 58  1  0
  2 59  1  0
  1 60  1  0
  1 61  1  0
  1 62  1  0
  7  3  1  0
 47  9  1  0
 32 11  1  0
 46 40  1  0
 24 15  1  0
 24 19  1  0
M  END
>  <cnnaffinities>  (58) 
[6.90653]

>  <score>  (58) 
6.90653

>  <index>  (58) 
60

>  <Smiles>  (58) 
C(C(n1nc(c(c1C(N1C([C@@]2(C(=O)N(c3c(nc(c4c(c(c(c(c34)[H])[H])[H])[H])[H])[H])C([C@@]2(C([H])([H])[H])[H])([H])[H])c2c(c(F)c(c(c2C1=O)[H])[H])[H])([H])[H])([H])[H])[H])[H])([H])[H])([H])([H])[H]

>  <h>  (58) 
<NA>

>  <Training>  (58) 
True

>  <Success>  (58) 
True

>  <enamine_searched>  (58) 
False

>  <enamine_id>  (58) 
nan

$$$$

     RDKit          3D

 44 47  0  0  0  0  0  0  0  0999 V2000
   -8.3312    0.7534  -21.6854 O   0  0  0  0  0  0  0  0  0  0  0  0
   -8.5066   -0.4477  -21.8010 C   0  0  0  0  0  0  0  0  0  0  0  0
   -7.4556   -1.4432  -21.2559 C   0  0  0  0  0  0  0  0  0  0  0  0
   -6.5790   -0.8332  -20.1823 C   0  0  0  0  0  0  0  0  0  0  0  0
   -6.8745   -1.0405  -18.8608 C   0  0  0  0  0  0  0  0  0  0  0  0
   -6.1880   -0.5323  -17.8052 N   0  0  0  0  0  0  0  0  0  0  0  0
   -5.1532    0.2238  -18.0681 C   0  0  0  0  0  0  0  0  0  0  0  0
   -4.7211    0.5366  -19.3834 C   0  0  0  0  0  0  0  0  0  0  0  0
   -3.5958    1.3676  -19.6212 C   0  0  0  0  0  0  0  0  0  0  0  0
   -3.2084    1.6622  -20.9002 C   0  0  0  0  0  0  0  0  0  0  0  0
   -3.9333    1.1362  -21.9916 C   0  0  0  0  0  0  0  0  0  0  0  0
   -5.0252    0.3279  -21.7860 C   0  0  0  0  0  0  0  0  0  0  0  0
   -5.4544    0.0015  -20.4744 C   0  0  0  0  0  0  0  0  0  0  0  0
   -5.5817   -0.0489  -22.6380 H   0  0  0  0  0  0  0  0  0  0  0  0
   -3.6266    1.3787  -23.0049 H   0  0  0  0  0  0  0  0  0  0  0  0
   -2.3525    2.3070  -21.0847 H   0  0  0  0  0  0  0  0  0  0  0  0
   -3.0545    1.7743  -18.7690 H   0  0  0  0  0  0  0  0  0  0  0  0
   -4.6003    0.6275  -17.2165 H   0  0  0  0  0  0  0  0  0  0  0  0
   -7.7260   -1.6591  -18.5815 H   0  0  0  0  0  0  0  0  0  0  0  0
   -7.9581   -2.3316  -20.8445 H   0  0  0  0  0  0  0  0  0  0  0  0
   -6.8289   -1.7996  -22.0847 H   0  0  0  0  0  0  0  0  0  0  0  0
   -9.6467   -0.9498  -22.3809 N   0  0  0  0  0  0  0  0  0  0  0  0
  -10.7747   -0.0432  -22.6147 C   0  0  0  0  0  0  0  0  0  0  0  0
  -12.0948   -0.7989  -22.5010 C   0  0  0  0  0  0  0  0  0  0  0  0
  -12.2288   -1.9527  -23.4949 C   0  0  0  0  0  0  0  0  0  0  0  0
  -13.2112   -1.6980  -24.6636 C   0  0  0  0  0  0  0  0  0  0  0  0
  -14.1358   -2.8242  -24.1702 C   0  0  0  0  0  0  0  0  0  0  0  0
  -13.1718   -3.0867  -22.9989 C   0  0  0  0  0  0  0  0  0  0  0  0
  -13.6066   -2.9092  -22.0117 H   0  0  0  0  0  0  0  0  0  0  0  0
  -12.7152   -4.0800  -22.9898 H   0  0  0  0  0  0  0  0  0  0  0  0
  -15.1312   -2.4921  -23.8680 H   0  0  0  0  0  0  0  0  0  0  0  0
  -14.2368   -3.6574  -24.8691 H   0  0  0  0  0  0  0  0  0  0  0  0
  -13.6574   -0.7005  -24.6560 H   0  0  0  0  0  0  0  0  0  0  0  0
  -12.7717   -1.8719  -25.6470 H   0  0  0  0  0  0  0  0  0  0  0  0
  -10.8477   -2.4229  -23.9518 C   0  0  0  0  0  0  0  0  0  0  0  0
   -9.7729   -2.3191  -22.8732 C   0  0  0  0  0  0  0  0  0  0  0  0
   -8.8166   -2.6381  -23.3005 H   0  0  0  0  0  0  0  0  0  0  0  0
   -9.9981   -3.0147  -22.0531 H   0  0  0  0  0  0  0  0  0  0  0  0
  -10.9120   -3.4558  -24.3031 H   0  0  0  0  0  0  0  0  0  0  0  0
  -10.5356   -1.8468  -24.8323 H   0  0  0  0  0  0  0  0  0  0  0  0
  -12.1764   -1.2317  -21.5056 H   0  0  0  0  0  0  0  0  0  0  0  0
  -12.9430   -0.1117  -22.5868 H   0  0  0  0  0  0  0  0  0  0  0  0
  -10.7106    0.4408  -23.5955 H   0  0  0  0  0  0  0  0  0  0  0  0
  -10.7085    0.7824  -21.9054 H   0  0  0  0  0  0  0  0  0  0  0  0
  1  2  2  0
  2  3  1  0
  3  4  1  0
  4  5  2  0
  5  6  1  0
  6  7  2  0
  7  8  1  0
  8  9  2  0
  9 10  1  0
 10 11  2  0
 11 12  1  0
 12 13  2  0
 12 14  1  0
 11 15  1  0
 10 16  1  0
  9 17  1  0
  7 18  1  0
  5 19  1  0
  3 20  1  0
  3 21  1  0
  2 22  1  0
 22 23  1  0
 23 24  1  0
 24 25  1  0
 25 26  1  0
 26 27  1  0
 27 28  1  0
 28 29  1  0
 28 30  1  0
 27 31  1  0
 27 32  1  0
 26 33  1  0
 26 34  1  0
 25 35  1  0
 35 36  1  0
 36 37  1  0
 36 38  1  0
 35 39  1  0
 35 40  1  0
 24 41  1  0
 24 42  1  0
 23 43  1  0
 23 44  1  0
 13  4  1  0
 36 22  1  0
 13  8  1  0
 28 25  1  0
M  END
>  <cnnaffinities>  (59) 
[5.45689, 5.45231, 5.45225, 4.76409, 5.03349, 5.03347, 5.03356, 5.03348, 5.0494, 5.04802, 5.04701]

>  <score>  (59) 
5.45689

>  <index>  (59) 
61

>  <Smiles>  (59) 
O=C(C(c1c(nc(c2c(c(c(c(c12)[H])[H])[H])[H])[H])[H])([H])[H])N1C(C(C2(C(C(C2([H])[H])([H])[H])([H])[H])C(C1([H])[H])([H])[H])([H])[H])([H])[H]

>  <h>  (59) 
<NA>

>  <Training>  (59) 
True

>  <Success>  (59) 
True

>  <enamine_searched>  (59) 
False

>  <enamine_id>  (59) 
nan

$$$$

     RDKit          3D

 44 47  0  0  0  0  0  0  0  0999 V2000
   -5.5916   -3.0344  -21.6147 O   0  0  0  0  0  0  0  0  0  0  0  0
   -6.7872   -2.8218  -21.7548 C   0  0  0  0  0  0  0  0  0  0  0  0
   -7.4070   -1.4965  -21.2666 C   0  0  0  0  0  0  0  0  0  0  0  0
   -6.5795   -0.8349  -20.1864 C   0  0  0  0  0  0  0  0  0  0  0  0
   -6.8772   -1.0485  -18.8635 C   0  0  0  0  0  0  0  0  0  0  0  0
   -6.1903   -0.5399  -17.8094 N   0  0  0  0  0  0  0  0  0  0  0  0
   -5.1567    0.2183  -18.0746 C   0  0  0  0  0  0  0  0  0  0  0  0
   -4.7200    0.5265  -19.3904 C   0  0  0  0  0  0  0  0  0  0  0  0
   -3.5934    1.3549  -19.6239 C   0  0  0  0  0  0  0  0  0  0  0  0
   -3.1918    1.6297  -20.9048 C   0  0  0  0  0  0  0  0  0  0  0  0
   -3.8991    1.0829  -21.9967 C   0  0  0  0  0  0  0  0  0  0  0  0
   -4.9935    0.2754  -21.7930 C   0  0  0  0  0  0  0  0  0  0  0  0
   -5.4425   -0.0188  -20.4782 C   0  0  0  0  0  0  0  0  0  0  0  0
   -5.5148   -0.1544  -22.6413 H   0  0  0  0  0  0  0  0  0  0  0  0
   -3.5804    1.3053  -23.0110 H   0  0  0  0  0  0  0  0  0  0  0  0
   -2.3342    2.2730  -21.0818 H   0  0  0  0  0  0  0  0  0  0  0  0
   -3.0712    1.7651  -18.7635 H   0  0  0  0  0  0  0  0  0  0  0  0
   -4.6091    0.6277  -17.2243 H   0  0  0  0  0  0  0  0  0  0  0  0
   -7.7284   -1.6705  -18.5837 H   0  0  0  0  0  0  0  0  0  0  0  0
   -7.5569   -0.8228  -22.1217 H   0  0  0  0  0  0  0  0  0  0  0  0
   -8.4067   -1.7129  -20.8674 H   0  0  0  0  0  0  0  0  0  0  0  0
   -7.6202   -3.7657  -22.3108 N   0  0  0  0  0  0  0  0  0  0  0  0
   -7.2472   -5.1684  -22.1524 C   0  0  0  0  0  0  0  0  0  0  0  0
   -7.5096   -5.9841  -23.4084 C   0  0  0  0  0  0  0  0  0  0  0  0
   -8.9639   -5.8304  -23.8658 C   0  0  0  0  0  0  0  0  0  0  0  0
   -9.2137   -6.7366  -25.0681 C   0  0  0  0  0  0  0  0  0  0  0  0
   -8.5294   -6.4441  -26.3762 C   0  0  0  0  0  0  0  0  0  0  0  0
  -10.0281   -6.2872  -26.2373 C   0  0  0  0  0  0  0  0  0  0  0  0
  -10.6645   -6.9974  -26.7586 H   0  0  0  0  0  0  0  0  0  0  0  0
  -10.4750   -5.2940  -26.1782 H   0  0  0  0  0  0  0  0  0  0  0  0
   -7.8861   -5.5658  -26.4611 H   0  0  0  0  0  0  0  0  0  0  0  0
   -8.1407   -7.2825  -26.9481 H   0  0  0  0  0  0  0  0  0  0  0  0
   -9.3112   -7.7910  -24.7904 H   0  0  0  0  0  0  0  0  0  0  0  0
   -9.2602   -4.3346  -24.0726 C   0  0  0  0  0  0  0  0  0  0  0  0
   -8.9718   -3.5231  -22.7995 C   0  0  0  0  0  0  0  0  0  0  0  0
   -9.7149   -3.7985  -22.0284 H   0  0  0  0  0  0  0  0  0  0  0  0
   -9.0775   -2.4485  -23.0091 H   0  0  0  0  0  0  0  0  0  0  0  0
  -10.3158   -4.1817  -24.3366 H   0  0  0  0  0  0  0  0  0  0  0  0
   -8.6458   -3.9493  -24.9007 H   0  0  0  0  0  0  0  0  0  0  0  0
   -9.6157   -6.1696  -23.0534 H   0  0  0  0  0  0  0  0  0  0  0  0
   -6.8509   -5.6731  -24.2321 H   0  0  0  0  0  0  0  0  0  0  0  0
   -7.3079   -7.0408  -23.1906 H   0  0  0  0  0  0  0  0  0  0  0  0
   -7.8443   -5.6227  -21.3456 H   0  0  0  0  0  0  0  0  0  0  0  0
   -6.1913   -5.1759  -21.8640 H   0  0  0  0  0  0  0  0  0  0  0  0
  1  2  2  0
  2  3  1  0
  3  4  1  0
  4  5  2  0
  5  6  1  0
  6  7  2  0
  7  8  1  0
  8  9  2  0
  9 10  1  0
 10 11  2  0
 11 12  1  0
 12 13  2  0
 12 14  1  0
 11 15  1  0
 10 16  1  0
  9 17  1  0
  7 18  1  0
  5 19  1  0
  3 20  1  0
  3 21  1  0
  2 22  1  0
 22 23  1  0
 23 24  1  0
 24 25  1  0
 25 26  1  0
 26 27  1  0
 27 28  1  0
 28 29  1  0
 28 30  1  0
 27 31  1  0
 27 32  1  0
 26 33  1  0
 25 34  1  0
 34 35  1  0
 35 36  1  0
 35 37  1  0
 34 38  1  0
 34 39  1  0
 25 40  1  0
 24 41  1  0
 24 42  1  0
 23 43  1  0
 23 44  1  0
 13  4  1  0
 35 22  1  0
 13  8  1  0
 28 26  1  0
M  END
>  <cnnaffinities>  (60) 
[4.70334, 4.79537, 5.25036, 5.14741, 5.41864, 4.75151, 4.87948, 5.04352, 4.95112, 4.86336]

>  <score>  (60) 
4.70334

>  <index>  (60) 
62

>  <Smiles>  (60) 
O=C(C(c1c(nc(c2c(c(c(c(c12)[H])[H])[H])[H])[H])[H])([H])[H])N1C(C(C(C2(C(C2([H])[H])([H])[H])[H])(C(C1([H])[H])([H])[H])[H])([H])[H])([H])[H]

>  <h>  (60) 
<NA>

>  <Training>  (60) 
True

>  <Success>  (60) 
True

>  <enamine_searched>  (60) 
False

>  <enamine_id>  (60) 
nan

$$$$

     RDKit          3D

 57 61  0  0  0  0  0  0  0  0999 V2000
   -7.3493    3.4108  -21.8405 C   0  0  0  0  0  0  0  0  0  0  0  0
   -8.1736    2.9371  -22.9379 N   0  0  0  0  0  0  0  0  0  0  0  0
   -7.5974    2.2452  -23.9487 C   0  0  0  0  0  0  0  0  0  0  0  0
   -6.3840    2.1303  -24.0592 O   0  0  0  0  0  0  0  0  0  0  0  0
   -8.5593    1.6290  -24.9756 C   0  0  0  0  0  0  0  0  0  0  0  0
   -9.3039    0.4874  -24.4702 N   0  0  0  0  0  0  0  0  0  0  0  0
   -8.6030   -0.7697  -24.2873 C   0  0  0  0  0  0  0  0  0  0  0  0
   -9.0138   -1.4753  -22.9659 C   0  0  2  0  0  0  0  0  0  0  0  0
   -8.4608   -0.6890  -21.7506 C   0  0  0  0  0  0  0  0  0  0  0  0
   -8.8667    0.3702  -21.3163 O   0  0  0  0  0  0  0  0  0  0  0  0
   -7.4043   -1.3848  -21.2092 N   0  0  0  0  0  0  0  0  0  0  0  0
   -6.6045   -0.8095  -20.1794 C   0  0  0  0  0  0  0  0  0  0  0  0
   -6.9068   -1.0412  -18.8639 C   0  0  0  0  0  0  0  0  0  0  0  0
   -6.1976   -0.5468  -17.8195 N   0  0  0  0  0  0  0  0  0  0  0  0
   -5.1645    0.2091  -18.0831 C   0  0  0  0  0  0  0  0  0  0  0  0
   -4.7278    0.5337  -19.3962 C   0  0  0  0  0  0  0  0  0  0  0  0
   -3.6000    1.3648  -19.6428 C   0  0  0  0  0  0  0  0  0  0  0  0
   -3.2112    1.6527  -20.9206 C   0  0  0  0  0  0  0  0  0  0  0  0
   -3.9331    1.1187  -22.0138 C   0  0  0  0  0  0  0  0  0  0  0  0
   -5.0268    0.3144  -21.8008 C   0  0  0  0  0  0  0  0  0  0  0  0
   -5.4661    0.0042  -20.4878 C   0  0  0  0  0  0  0  0  0  0  0  0
   -5.5780   -0.0799  -22.6516 H   0  0  0  0  0  0  0  0  0  0  0  0
   -3.6424    1.3554  -23.0309 H   0  0  0  0  0  0  0  0  0  0  0  0
   -2.3591    2.3027  -21.1023 H   0  0  0  0  0  0  0  0  0  0  0  0
   -3.0698    1.7741  -18.7849 H   0  0  0  0  0  0  0  0  0  0  0  0
   -4.6180    0.6129  -17.2285 H   0  0  0  0  0  0  0  0  0  0  0  0
   -7.7564   -1.6655  -18.5980 H   0  0  0  0  0  0  0  0  0  0  0  0
   -7.0775   -2.6163  -21.9030 C   0  0  0  0  0  0  0  0  0  0  0  0
   -8.3087   -2.8625  -22.8099 C   0  0  2  0  0  0  0  0  0  0  0  0
   -7.9377   -3.5879  -24.1060 C   0  0  0  0  0  0  0  0  0  0  0  0
   -7.4293   -4.8633  -23.7613 O   0  0  0  0  0  0  0  0  0  0  0  0
   -7.1995   -5.3256  -24.5782 H   0  0  0  0  0  0  0  0  0  0  0  0
   -7.1775   -3.0058  -24.6525 H   0  0  0  0  0  0  0  0  0  0  0  0
   -8.8218   -3.6819  -24.7569 H   0  0  0  0  0  0  0  0  0  0  0  0
   -8.9945   -3.5266  -22.2794 H   0  0  0  0  0  0  0  0  0  0  0  0
   -6.9112   -3.4278  -21.1859 H   0  0  0  0  0  0  0  0  0  0  0  0
   -6.1502   -2.5052  -22.4882 H   0  0  0  0  0  0  0  0  0  0  0  0
  -10.5318   -1.4869  -22.8913 C   0  0  0  0  0  0  0  0  0  0  0  0
  -11.1797   -2.3284  -21.9797 C   0  0  0  0  0  0  0  0  0  0  0  0
  -12.5595   -2.3255  -21.8919 C   0  0  0  0  0  0  0  0  0  0  0  0
  -13.3543   -3.3885  -20.7687 Cl  0  0  0  0  0  0  0  0  0  0  0  0
  -13.3358   -1.4745  -22.6783 C   0  0  0  0  0  0  0  0  0  0  0  0
  -12.6999   -0.5863  -23.5206 C   0  0  0  0  0  0  0  0  0  0  0  0
  -11.3087   -0.5634  -23.6059 C   0  0  0  0  0  0  0  0  0  0  0  0
  -10.6733    0.5426  -24.3988 C   0  0  0  0  0  0  0  0  0  0  0  0
  -11.3300    1.4408  -24.8999 O   0  0  0  0  0  0  0  0  0  0  0  0
  -13.2529    0.1327  -24.1143 H   0  0  0  0  0  0  0  0  0  0  0  0
  -14.4165   -1.4992  -22.5964 H   0  0  0  0  0  0  0  0  0  0  0  0
  -10.6200   -2.9709  -21.3087 H   0  0  0  0  0  0  0  0  0  0  0  0
   -7.5351   -0.5348  -24.2594 H   0  0  0  0  0  0  0  0  0  0  0  0
   -8.8025   -1.4445  -25.1370 H   0  0  0  0  0  0  0  0  0  0  0  0
   -7.9251    1.3425  -25.8207 H   0  0  0  0  0  0  0  0  0  0  0  0
   -9.3184    2.3408  -25.3168 H   0  0  0  0  0  0  0  0  0  0  0  0
   -9.1762    2.8980  -22.8139 H   0  0  0  0  0  0  0  0  0  0  0  0
   -6.6373    4.1703  -22.1864 H   0  0  0  0  0  0  0  0  0  0  0  0
   -8.0315    3.8563  -21.1214 H   0  0  0  0  0  0  0  0  0  0  0  0
   -6.7809    2.5853  -21.3815 H   0  0  0  0  0  0  0  0  0  0  0  0
  1  2  1  0
  2  3  1  0
  3  4  2  0
  3  5  1  0
  5  6  1  0
  6  7  1  0
  8  7  1  6
  8  9  1  0
  9 10  2  0
  9 11  1  0
 11 12  1  0
 12 13  2  0
 13 14  1  0
 14 15  2  0
 15 16  1  0
 16 17  2  0
 17 18  1  0
 18 19  2  0
 19 20  1  0
 20 21  2  0
 20 22  1  0
 19 23  1  0
 18 24  1  0
 17 25  1  0
 15 26  1  0
 13 27  1  0
 11 28  1  0
 28 29  1  0
 29 30  1  0
 30 31  1  0
 31 32  1  0
 30 33  1  0
 30 34  1  0
 29 35  1  1
 28 36  1  0
 28 37  1  0
  8 38  1  0
 38 39  2  0
 39 40  1  0
 40 41  1  0
 40 42  2  0
 42 43  1  0
 43 44  2  0
 44 45  1  0
 45 46  2  0
 43 47  1  0
 42 48  1  0
 39 49  1  0
  7 50  1  0
  7 51  1  0
  5 52  1  0
  5 53  1  0
  2 54  1  0
  1 55  1  0
  1 56  1  0
  1 57  1  0
 45  6  1  0
 29  8  1  0
 44 38  1  0
 21 12  1  0
 21 16  1  0
M  END
>  <cnnaffinities>  (61) 
[6.11901]

>  <score>  (61) 
6.11901

>  <index>  (61) 
63

>  <Smiles>  (61) 
C(N(C(=O)C(N1C([C@@]2(C(=O)N(c3c(nc(c4c(c(c(c(c34)[H])[H])[H])[H])[H])[H])C([C@@]2(C(O[H])([H])[H])[H])([H])[H])c2c(c(Cl)c(c(c2C1=O)[H])[H])[H])([H])[H])([H])[H])[H])([H])([H])[H]

>  <h>  (61) 
<NA>

>  <Training>  (61) 
True

>  <Success>  (61) 
True

>  <enamine_searched>  (61) 
False

>  <enamine_id>  (61) 
nan

$$$$

     RDKit          3D

 55 60  0  0  0  0  0  0  0  0999 V2000
  -10.4590   -1.1312  -23.2876 C   0  0  0  0  0  0  0  0  0  0  0  0
   -9.0113   -1.4716  -22.9483 C   0  0  1  0  0  0  0  0  0  0  0  0
   -8.4001   -0.5184  -21.9070 C   0  0  0  0  0  0  0  0  0  0  0  0
   -7.3984   -1.3393  -21.2428 N   0  0  0  0  0  0  0  0  0  0  0  0
   -6.5791   -0.8448  -20.1979 C   0  0  0  0  0  0  0  0  0  0  0  0
   -6.8837   -1.0943  -18.8840 C   0  0  0  0  0  0  0  0  0  0  0  0
   -6.2070   -0.5651  -17.8345 N   0  0  0  0  0  0  0  0  0  0  0  0
   -5.1907    0.2154  -18.0948 C   0  0  0  0  0  0  0  0  0  0  0  0
   -4.7450    0.5293  -19.4093 C   0  0  0  0  0  0  0  0  0  0  0  0
   -3.6156    1.3541  -19.6451 C   0  0  0  0  0  0  0  0  0  0  0  0
   -3.2142    1.6175  -20.9242 C   0  0  0  0  0  0  0  0  0  0  0  0
   -3.9161    1.0693  -22.0213 C   0  0  0  0  0  0  0  0  0  0  0  0
   -5.0126    0.2679  -21.8191 C   0  0  0  0  0  0  0  0  0  0  0  0
   -5.4578   -0.0128  -20.5019 C   0  0  0  0  0  0  0  0  0  0  0  0
   -5.5351   -0.1715  -22.6628 H   0  0  0  0  0  0  0  0  0  0  0  0
   -3.5851    1.2805  -23.0325 H   0  0  0  0  0  0  0  0  0  0  0  0
   -2.3567    2.2580  -21.1077 H   0  0  0  0  0  0  0  0  0  0  0  0
   -3.0857    1.7670  -18.7903 H   0  0  0  0  0  0  0  0  0  0  0  0
   -4.6524    0.6316  -17.2423 H   0  0  0  0  0  0  0  0  0  0  0  0
   -7.7249   -1.7350  -18.6315 H   0  0  0  0  0  0  0  0  0  0  0  0
   -7.5627   -2.6928  -21.4527 C   0  0  0  0  0  0  0  0  0  0  0  0
   -6.8352   -3.5557  -21.0043 O   0  0  0  0  0  0  0  0  0  0  0  0
   -8.7795   -2.9103  -22.3591 C   0  0  1  0  0  0  0  0  0  0  0  0
   -9.9710   -3.3724  -21.4846 C   0  0  0  0  0  0  0  0  0  0  0  0
  -11.0991   -3.8505  -22.2834 N   0  0  0  0  0  0  0  0  0  0  0  0
  -12.4719   -3.7548  -21.7995 C   0  0  0  0  0  0  0  0  0  0  0  0
  -13.2972   -2.6853  -22.4527 C   0  0  0  0  0  0  0  0  0  0  0  0
  -13.7900   -2.8613  -23.7133 N   0  0  0  0  0  0  0  0  0  0  0  0
  -14.5669   -1.8142  -23.8724 C   0  0  0  0  0  0  0  0  0  0  0  0
  -14.5248   -1.0389  -22.7790 N   0  0  0  0  0  0  0  0  0  0  0  0
  -13.7068   -1.5853  -21.8493 N   0  0  0  0  0  0  0  0  0  0  0  0
  -15.0566   -0.2126  -22.5830 H   0  0  0  0  0  0  0  0  0  0  0  0
  -15.2113   -1.6198  -24.7134 H   0  0  0  0  0  0  0  0  0  0  0  0
  -12.4897   -3.6753  -20.7082 H   0  0  0  0  0  0  0  0  0  0  0  0
  -12.9569   -4.6803  -22.1241 H   0  0  0  0  0  0  0  0  0  0  0  0
  -10.9096   -4.6576  -23.3756 C   0  0  0  0  0  0  0  0  0  0  0  0
  -11.8351   -5.2183  -23.9478 O   0  0  0  0  0  0  0  0  0  0  0  0
   -9.5111   -4.8079  -23.8614 C   0  0  0  0  0  0  0  0  0  0  0  0
   -9.2623   -5.7800  -24.8317 C   0  0  0  0  0  0  0  0  0  0  0  0
   -8.0092   -5.9082  -25.3967 C   0  0  0  0  0  0  0  0  0  0  0  0
   -7.0143   -5.0401  -24.9599 C   0  0  0  0  0  0  0  0  0  0  0  0
   -5.7943   -5.1421  -25.5105 F   0  0  0  0  0  0  0  0  0  0  0  0
   -7.2252   -4.0934  -23.9755 C   0  0  0  0  0  0  0  0  0  0  0  0
   -8.4958   -3.9688  -23.4009 C   0  0  0  0  0  0  0  0  0  0  0  0
   -6.3905   -3.4865  -23.6428 H   0  0  0  0  0  0  0  0  0  0  0  0
   -7.7973   -6.6589  -26.1533 H   0  0  0  0  0  0  0  0  0  0  0  0
  -10.0801   -6.4215  -25.1445 H   0  0  0  0  0  0  0  0  0  0  0  0
   -9.6450   -4.1677  -20.8036 H   0  0  0  0  0  0  0  0  0  0  0  0
  -10.2886   -2.5021  -20.8999 H   0  0  0  0  0  0  0  0  0  0  0  0
   -7.9396    0.3604  -22.3717 H   0  0  0  0  0  0  0  0  0  0  0  0
   -9.1616   -0.1519  -21.1956 H   0  0  0  0  0  0  0  0  0  0  0  0
   -8.4032   -1.4291  -23.8633 H   0  0  0  0  0  0  0  0  0  0  0  0
  -11.0660   -1.0873  -22.3770 H   0  0  0  0  0  0  0  0  0  0  0  0
  -10.5380   -0.1662  -23.7969 H   0  0  0  0  0  0  0  0  0  0  0  0
  -10.8904   -1.9058  -23.9279 H   0  0  0  0  0  0  0  0  0  0  0  0
  1  2  1  0
  2  3  1  0
  3  4  1  0
  4  5  1  0
  5  6  2  0
  6  7  1  0
  7  8  2  0
  8  9  1  0
  9 10  2  0
 10 11  1  0
 11 12  2  0
 12 13  1  0
 13 14  2  0
 13 15  1  0
 12 16  1  0
 11 17  1  0
 10 18  1  0
  8 19  1  0
  6 20  1  0
  4 21  1  0
 21 22  2  0
 21 23  1  0
 23 24  1  1
 24 25  1  0
 25 26  1  0
 26 27  1  0
 27 28  1  0
 28 29  2  0
 29 30  1  0
 30 31  1  0
 30 32  1  0
 29 33  1  0
 26 34  1  0
 26 35  1  0
 25 36  1  0
 36 37  2  0
 36 38  1  0
 38 39  2  0
 39 40  1  0
 40 41  2  0
 41 42  1  0
 41 43  1  0
 43 44  2  0
 43 45  1  0
 40 46  1  0
 39 47  1  0
 24 48  1  0
 24 49  1  0
  3 50  1  0
  3 51  1  0
  2 52  1  6
  1 53  1  0
  1 54  1  0
  1 55  1  0
 23  2  1  0
 31 27  2  0
 44 38  1  0
 14  5  1  0
 44 23  1  0
 14  9  1  0
M  END
>  <cnnaffinities>  (62) 
[6.80979, 6.7576]

>  <score>  (62) 
6.80979

>  <index>  (62) 
64

>  <Smiles>  (62) 
C([C@]1(C(N(c2c(nc(c3c(c(c(c(c23)[H])[H])[H])[H])[H])[H])C(=O)[C@]21C(N(C(c1nc(n(n1)[H])[H])([H])[H])C(=O)c1c(c(c(F)c(c21)[H])[H])[H])([H])[H])([H])[H])[H])([H])([H])[H]

>  <h>  (62) 
<NA>

>  <Training>  (62) 
True

>  <Success>  (62) 
True

>  <enamine_searched>  (62) 
False

>  <enamine_id>  (62) 
nan

$$$$

     RDKit          3D

 55 60  0  0  0  0  0  0  0  0999 V2000
  -10.4283   -1.0775  -23.3609 C   0  0  0  0  0  0  0  0  0  0  0  0
   -8.9841   -1.4143  -22.9966 C   0  0  1  0  0  0  0  0  0  0  0  0
   -8.4019   -0.4914  -21.9086 C   0  0  0  0  0  0  0  0  0  0  0  0
   -7.3979   -1.3220  -21.2699 N   0  0  0  0  0  0  0  0  0  0  0  0
   -6.5825   -0.8444  -20.2140 C   0  0  0  0  0  0  0  0  0  0  0  0
   -6.8872   -1.1153  -18.9047 C   0  0  0  0  0  0  0  0  0  0  0  0
   -6.2148   -0.5870  -17.8510 N   0  0  0  0  0  0  0  0  0  0  0  0
   -5.2060    0.2088  -18.1038 C   0  0  0  0  0  0  0  0  0  0  0  0
   -4.7537    0.5335  -19.4152 C   0  0  0  0  0  0  0  0  0  0  0  0
   -3.6271    1.3643  -19.6509 C   0  0  0  0  0  0  0  0  0  0  0  0
   -3.2223    1.6274  -20.9313 C   0  0  0  0  0  0  0  0  0  0  0  0
   -3.9153    1.0716  -22.0320 C   0  0  0  0  0  0  0  0  0  0  0  0
   -5.0091    0.2656  -21.8298 C   0  0  0  0  0  0  0  0  0  0  0  0
   -5.4571   -0.0123  -20.5116 C   0  0  0  0  0  0  0  0  0  0  0  0
   -5.5366   -0.1808  -22.6688 H   0  0  0  0  0  0  0  0  0  0  0  0
   -3.5809    1.2762  -23.0449 H   0  0  0  0  0  0  0  0  0  0  0  0
   -2.3586    2.2603  -21.1132 H   0  0  0  0  0  0  0  0  0  0  0  0
   -3.0983    1.7741  -18.7941 H   0  0  0  0  0  0  0  0  0  0  0  0
   -4.6813    0.6337  -17.2474 H   0  0  0  0  0  0  0  0  0  0  0  0
   -7.7154   -1.7779  -18.6556 H   0  0  0  0  0  0  0  0  0  0  0  0
   -7.5702   -2.6686  -21.5034 C   0  0  0  0  0  0  0  0  0  0  0  0
   -6.8534   -3.5334  -21.0360 O   0  0  0  0  0  0  0  0  0  0  0  0
   -8.7583   -2.8715  -22.4512 C   0  0  1  0  0  0  0  0  0  0  0  0
   -9.9675   -3.3357  -21.5982 C   0  0  0  0  0  0  0  0  0  0  0  0
  -11.0861   -3.8202  -22.3947 N   0  0  0  0  0  0  0  0  0  0  0  0
  -12.4610   -3.7940  -21.9007 C   0  0  0  0  0  0  0  0  0  0  0  0
  -13.3119   -2.6859  -22.4333 C   0  0  0  0  0  0  0  0  0  0  0  0
  -13.9560   -2.6380  -23.6216 C   0  0  0  0  0  0  0  0  0  0  0  0
  -14.6941   -1.4891  -23.6590 O   0  0  0  0  0  0  0  0  0  0  0  0
  -14.4337   -0.8887  -22.4816 C   0  0  0  0  0  0  0  0  0  0  0  0
  -13.6167   -1.5340  -21.7162 N   0  0  0  0  0  0  0  0  0  0  0  0
  -14.9295    0.0551  -22.2800 H   0  0  0  0  0  0  0  0  0  0  0  0
  -14.0299   -3.2866  -24.4854 H   0  0  0  0  0  0  0  0  0  0  0  0
  -12.4742   -3.7757  -20.8088 H   0  0  0  0  0  0  0  0  0  0  0  0
  -12.9199   -4.7170  -22.2567 H   0  0  0  0  0  0  0  0  0  0  0  0
  -10.8962   -4.5459  -23.5394 C   0  0  0  0  0  0  0  0  0  0  0  0
  -11.8394   -5.0394  -24.1508 O   0  0  0  0  0  0  0  0  0  0  0  0
   -9.4886   -4.7202  -23.9961 C   0  0  0  0  0  0  0  0  0  0  0  0
   -9.2409   -5.7215  -24.9328 C   0  0  0  0  0  0  0  0  0  0  0  0
   -7.9673   -5.9116  -25.4377 C   0  0  0  0  0  0  0  0  0  0  0  0
   -6.9509   -5.0612  -25.0105 C   0  0  0  0  0  0  0  0  0  0  0  0
   -5.7099   -5.2184  -25.5084 F   0  0  0  0  0  0  0  0  0  0  0  0
   -7.1629   -4.0875  -24.0503 C   0  0  0  0  0  0  0  0  0  0  0  0
   -8.4516   -3.9150  -23.5115 C   0  0  0  0  0  0  0  0  0  0  0  0
   -6.3090   -3.5188  -23.6936 H   0  0  0  0  0  0  0  0  0  0  0  0
   -7.7474   -6.6994  -26.1485 H   0  0  0  0  0  0  0  0  0  0  0  0
  -10.0689   -6.3517  -25.2487 H   0  0  0  0  0  0  0  0  0  0  0  0
  -10.2757   -2.4906  -20.9745 H   0  0  0  0  0  0  0  0  0  0  0  0
   -9.6336   -4.1105  -20.9084 H   0  0  0  0  0  0  0  0  0  0  0  0
   -9.1774   -0.1785  -21.1900 H   0  0  0  0  0  0  0  0  0  0  0  0
   -7.9604    0.4281  -22.3113 H   0  0  0  0  0  0  0  0  0  0  0  0
   -8.3552   -1.3223  -23.8920 H   0  0  0  0  0  0  0  0  0  0  0  0
  -10.5192   -0.1109  -23.8604 H   0  0  0  0  0  0  0  0  0  0  0  0
  -10.8466   -1.8432  -24.0211 H   0  0  0  0  0  0  0  0  0  0  0  0
  -11.0663   -1.0297  -22.4725 H   0  0  0  0  0  0  0  0  0  0  0  0
  1  2  1  0
  2  3  1  0
  3  4  1  0
  4  5  1  0
  5  6  2  0
  6  7  1  0
  7  8  2  0
  8  9  1  0
  9 10  2  0
 10 11  1  0
 11 12  2  0
 12 13  1  0
 13 14  2  0
 13 15  1  0
 12 16  1  0
 11 17  1  0
 10 18  1  0
  8 19  1  0
  6 20  1  0
  4 21  1  0
 21 22  2  0
 21 23  1  0
 23 24  1  1
 24 25  1  0
 25 26  1  0
 26 27  1  0
 27 28  2  0
 28 29  1  0
 29 30  1  0
 30 31  2  0
 30 32  1  0
 28 33  1  0
 26 34  1  0
 26 35  1  0
 25 36  1  0
 36 37  2  0
 36 38  1  0
 38 39  2  0
 39 40  1  0
 40 41  2  0
 41 42  1  0
 41 43  1  0
 43 44  2  0
 43 45  1  0
 40 46  1  0
 39 47  1  0
 24 48  1  0
 24 49  1  0
  3 50  1  0
  3 51  1  0
  2 52  1  6
  1 53  1  0
  1 54  1  0
  1 55  1  0
 23  2  1  0
 31 27  1  0
 44 38  1  0
 14  5  1  0
 44 23  1  0
 14  9  1  0
M  END
>  <cnnaffinities>  (63) 
[6.77796]

>  <score>  (63) 
6.77796

>  <index>  (63) 
65

>  <Smiles>  (63) 
C([C@]1(C(N(c2c(nc(c3c(c(c(c(c23)[H])[H])[H])[H])[H])[H])C(=O)[C@]21C(N(C(c1c(oc(n1)[H])[H])([H])[H])C(=O)c1c(c(c(F)c(c21)[H])[H])[H])([H])[H])([H])[H])[H])([H])([H])[H]

>  <h>  (63) 
<NA>

>  <Training>  (63) 
True

>  <Success>  (63) 
True

>  <enamine_searched>  (63) 
False

>  <enamine_id>  (63) 
nan

$$$$

     RDKit          3D

 44 47  0  0  0  0  0  0  0  0999 V2000
   -7.8632   -0.6308  -24.9373 C   0  0  0  0  0  0  0  0  0  0  0  0
   -8.3879   -2.0413  -25.1102 C   0  0  0  0  0  0  0  0  0  0  0  0
   -8.3384   -2.8840  -23.8288 C   0  0  1  0  0  0  0  0  0  0  0  0
   -8.8948   -4.2630  -24.0845 C   0  0  0  0  0  0  0  0  0  0  0  0
  -10.2753   -4.5712  -24.2950 C   0  0  0  0  0  0  0  0  0  0  0  0
  -10.4757   -5.8919  -24.5592 C   0  0  0  0  0  0  0  0  0  0  0  0
   -8.9948   -6.7800  -24.5560 S   0  0  0  0  0  0  0  0  0  0  0  0
   -8.0871   -5.3546  -24.1815 C   0  0  0  0  0  0  0  0  0  0  0  0
   -6.6069   -5.3358  -23.9386 C   0  0  0  0  0  0  0  0  0  0  0  0
   -6.0938   -3.8948  -23.9607 C   0  0  0  0  0  0  0  0  0  0  0  0
   -6.9918   -2.9819  -23.2485 N   0  0  0  0  0  0  0  0  0  0  0  0
   -6.6851   -2.6710  -21.9319 C   0  0  0  0  0  0  0  0  0  0  0  0
   -5.8395   -3.2895  -21.3107 O   0  0  0  0  0  0  0  0  0  0  0  0
   -7.4049   -1.4672  -21.2755 C   0  0  0  0  0  0  0  0  0  0  0  0
   -6.5813   -0.8269  -20.1801 C   0  0  0  0  0  0  0  0  0  0  0  0
   -6.8720   -1.0457  -18.8578 C   0  0  0  0  0  0  0  0  0  0  0  0
   -6.1837   -0.5379  -17.8011 N   0  0  0  0  0  0  0  0  0  0  0  0
   -5.1541    0.2252  -18.0648 C   0  0  0  0  0  0  0  0  0  0  0  0
   -4.7195    0.5344  -19.3831 C   0  0  0  0  0  0  0  0  0  0  0  0
   -3.5908    1.3617  -19.6224 C   0  0  0  0  0  0  0  0  0  0  0  0
   -3.1921    1.6388  -20.9023 C   0  0  0  0  0  0  0  0  0  0  0  0
   -3.9070    1.0966  -21.9933 C   0  0  0  0  0  0  0  0  0  0  0  0
   -5.0029    0.2949  -21.7857 C   0  0  0  0  0  0  0  0  0  0  0  0
   -5.4466   -0.0072  -20.4706 C   0  0  0  0  0  0  0  0  0  0  0  0
   -5.5326   -0.1132  -22.6410 H   0  0  0  0  0  0  0  0  0  0  0  0
   -3.5872    1.3188  -23.0059 H   0  0  0  0  0  0  0  0  0  0  0  0
   -2.3330    2.2765  -21.0888 H   0  0  0  0  0  0  0  0  0  0  0  0
   -3.0524    1.7741  -18.7726 H   0  0  0  0  0  0  0  0  0  0  0  0
   -4.5997    0.6287  -17.2156 H   0  0  0  0  0  0  0  0  0  0  0  0
   -7.7199   -1.6713  -18.5842 H   0  0  0  0  0  0  0  0  0  0  0  0
   -7.6866   -0.7148  -22.0254 H   0  0  0  0  0  0  0  0  0  0  0  0
   -8.3429   -1.8358  -20.8397 H   0  0  0  0  0  0  0  0  0  0  0  0
   -6.0014   -3.5642  -25.0012 H   0  0  0  0  0  0  0  0  0  0  0  0
   -5.0979   -3.8280  -23.5201 H   0  0  0  0  0  0  0  0  0  0  0  0
   -6.3971   -5.7703  -22.9552 H   0  0  0  0  0  0  0  0  0  0  0  0
   -6.0679   -5.9544  -24.6678 H   0  0  0  0  0  0  0  0  0  0  0  0
  -11.4159   -6.3961  -24.7362 H   0  0  0  0  0  0  0  0  0  0  0  0
  -11.0765   -3.8359  -24.2534 H   0  0  0  0  0  0  0  0  0  0  0  0
   -8.9906   -2.4011  -23.0928 H   0  0  0  0  0  0  0  0  0  0  0  0
   -7.8394   -2.5689  -25.8938 H   0  0  0  0  0  0  0  0  0  0  0  0
   -9.4262   -2.0172  -25.4601 H   0  0  0  0  0  0  0  0  0  0  0  0
   -7.9251   -0.0753  -25.8750 H   0  0  0  0  0  0  0  0  0  0  0  0
   -6.8181   -0.6403  -24.6157 H   0  0  0  0  0  0  0  0  0  0  0  0
   -8.4462   -0.0852  -24.1892 H   0  0  0  0  0  0  0  0  0  0  0  0
  1  2  1  0
  2  3  1  0
  3  4  1  0
  4  5  1  0
  5  6  2  0
  6  7  1  0
  7  8  1  0
  8  9  1  0
  9 10  1  0
 10 11  1  0
 11 12  1  0
 12 13  2  0
 12 14  1  0
 14 15  1  0
 15 16  2  0
 16 17  1  0
 17 18  2  0
 18 19  1  0
 19 20  2  0
 20 21  1  0
 21 22  2  0
 22 23  1  0
 23 24  2  0
 23 25  1  0
 22 26  1  0
 21 27  1  0
 20 28  1  0
 18 29  1  0
 16 30  1  0
 14 31  1  0
 14 32  1  0
 10 33  1  0
 10 34  1  0
  9 35  1  0
  9 36  1  0
  6 37  1  0
  5 38  1  0
  3 39  1  1
  2 40  1  0
  2 41  1  0
  1 42  1  0
  1 43  1  0
  1 44  1  0
 11  3  1  0
 24 15  1  0
  8  4  2  0
 24 19  1  0
M  END
>  <cnnaffinities>  (64) 
[5.45119, 5.22689, 5.35976]

>  <score>  (64) 
5.45119

>  <index>  (64) 
66

>  <Smiles>  (64) 
C(C([C@]1(c2c(c(sc2C(C(N1C(=O)C(c1c(nc(c2c(c(c(c(c12)[H])[H])[H])[H])[H])[H])([H])[H])([H])[H])([H])[H])[H])[H])[H])([H])[H])([H])([H])[H]

>  <h>  (64) 
<NA>

>  <Training>  (64) 
True

>  <Success>  (64) 
True

>  <enamine_searched>  (64) 
False

>  <enamine_id>  (64) 
nan

$$$$

     RDKit          3D

 58 63  0  0  0  0  0  0  0  0999 V2000
  -15.0984    0.2744  -22.6743 C   0  0  0  0  0  0  0  0  0  0  0  0
  -14.3422   -1.0157  -22.7229 C   0  0  0  0  0  0  0  0  0  0  0  0
  -13.8162   -1.7938  -21.6549 C   0  0  0  0  0  0  0  0  0  0  0  0
  -13.1575   -2.7922  -22.2968 C   0  0  0  0  0  0  0  0  0  0  0  0
  -12.3654   -3.9891  -21.9047 C   0  0  0  0  0  0  0  0  0  0  0  0
  -11.0249   -3.9915  -22.4545 N   0  0  0  0  0  0  0  0  0  0  0  0
   -9.9583   -3.3841  -21.6801 C   0  0  0  0  0  0  0  0  0  0  0  0
   -8.7557   -2.8741  -22.5155 C   0  0  2  0  0  0  0  0  0  0  0  0
   -7.5755   -2.6903  -21.5307 C   0  0  0  0  0  0  0  0  0  0  0  0
   -6.9019   -3.5732  -21.0404 O   0  0  0  0  0  0  0  0  0  0  0  0
   -7.3718   -1.3443  -21.2975 N   0  0  0  0  0  0  0  0  0  0  0  0
   -6.5573   -0.8695  -20.2347 C   0  0  0  0  0  0  0  0  0  0  0  0
   -6.8631   -1.1378  -18.9241 C   0  0  0  0  0  0  0  0  0  0  0  0
   -6.2023   -0.6013  -17.8665 N   0  0  0  0  0  0  0  0  0  0  0  0
   -5.1986    0.2026  -18.1094 C   0  0  0  0  0  0  0  0  0  0  0  0
   -4.7436    0.5312  -19.4179 C   0  0  0  0  0  0  0  0  0  0  0  0
   -3.6260    1.3780  -19.6441 C   0  0  0  0  0  0  0  0  0  0  0  0
   -3.2154    1.6401  -20.9237 C   0  0  0  0  0  0  0  0  0  0  0  0
   -3.8972    1.0776  -22.0262 C   0  0  0  0  0  0  0  0  0  0  0  0
   -4.9856    0.2629  -21.8321 C   0  0  0  0  0  0  0  0  0  0  0  0
   -5.4380   -0.0220  -20.5179 C   0  0  0  0  0  0  0  0  0  0  0  0
   -5.5030   -0.1813  -22.6765 H   0  0  0  0  0  0  0  0  0  0  0  0
   -3.5629    1.2895  -23.0368 H   0  0  0  0  0  0  0  0  0  0  0  0
   -2.3669    2.2935  -21.1003 H   0  0  0  0  0  0  0  0  0  0  0  0
   -3.1166    1.8112  -18.7867 H   0  0  0  0  0  0  0  0  0  0  0  0
   -4.6801    0.6289  -17.2486 H   0  0  0  0  0  0  0  0  0  0  0  0
   -7.6830   -1.8061  -18.6695 H   0  0  0  0  0  0  0  0  0  0  0  0
   -8.3768   -0.5086  -21.9280 C   0  0  0  0  0  0  0  0  0  0  0  0
   -8.9276   -1.4052  -23.0493 C   0  0  2  0  0  0  0  0  0  0  0  0
  -10.3186   -0.9795  -23.4935 C   0  0  0  0  0  0  0  0  0  0  0  0
  -10.2933    0.0218  -23.9371 H   0  0  0  0  0  0  0  0  0  0  0  0
  -11.0077   -0.9435  -22.6446 H   0  0  0  0  0  0  0  0  0  0  0  0
  -10.7252   -1.6673  -24.2371 H   0  0  0  0  0  0  0  0  0  0  0  0
   -8.2515   -1.3203  -23.9084 H   0  0  0  0  0  0  0  0  0  0  0  0
   -7.9473    0.4306  -22.2958 H   0  0  0  0  0  0  0  0  0  0  0  0
   -9.1656   -0.2303  -21.2105 H   0  0  0  0  0  0  0  0  0  0  0  0
   -8.4258   -3.9185  -23.5751 C   0  0  0  0  0  0  0  0  0  0  0  0
   -7.1291   -4.0509  -24.0974 C   0  0  0  0  0  0  0  0  0  0  0  0
   -6.8641   -5.0425  -25.0259 C   0  0  0  0  0  0  0  0  0  0  0  0
   -5.6042   -5.2000  -25.4672 F   0  0  0  0  0  0  0  0  0  0  0  0
   -7.8485   -5.8921  -25.5213 C   0  0  0  0  0  0  0  0  0  0  0  0
   -9.1355   -5.7266  -25.0516 C   0  0  0  0  0  0  0  0  0  0  0  0
   -9.4158   -4.7754  -24.0726 C   0  0  0  0  0  0  0  0  0  0  0  0
  -10.8177   -4.7364  -23.5798 C   0  0  0  0  0  0  0  0  0  0  0  0
  -11.7099   -5.3530  -24.1419 O   0  0  0  0  0  0  0  0  0  0  0  0
   -9.9610   -6.3329  -25.4148 H   0  0  0  0  0  0  0  0  0  0  0  0
   -7.5954   -6.6528  -26.2523 H   0  0  0  0  0  0  0  0  0  0  0  0
   -6.3123   -3.4166  -23.7633 H   0  0  0  0  0  0  0  0  0  0  0  0
   -9.5686   -4.1113  -20.9632 H   0  0  0  0  0  0  0  0  0  0  0  0
  -10.4016   -2.5612  -21.1104 H   0  0  0  0  0  0  0  0  0  0  0  0
  -12.8660   -4.8362  -22.3682 H   0  0  0  0  0  0  0  0  0  0  0  0
  -12.3394   -4.1069  -20.8213 H   0  0  0  0  0  0  0  0  0  0  0  0
  -13.3143   -2.6688  -23.6226 O   0  0  0  0  0  0  0  0  0  0  0  0
  -14.0788   -1.5555  -23.8872 N   0  0  0  0  0  0  0  0  0  0  0  0
  -13.9696   -1.6371  -20.5959 H   0  0  0  0  0  0  0  0  0  0  0  0
  -15.9929    0.1365  -23.2558 H   0  0  0  0  0  0  0  0  0  0  0  0
  -14.5134    1.1097  -23.0819 H   0  0  0  0  0  0  0  0  0  0  0  0
  -15.4516    0.5349  -21.6844 H   0  0  0  0  0  0  0  0  0  0  0  0
  1  2  1  0
  2  3  1  0
  3  4  2  0
  4  5  1  0
  5  6  1  0
  6  7  1  0
  8  7  1  1
  8  9  1  0
  9 10  2  0
  9 11  1  0
 11 12  1  0
 12 13  2  0
 13 14  1  0
 14 15  2  0
 15 16  1  0
 16 17  2  0
 17 18  1  0
 18 19  2  0
 19 20  1  0
 20 21  2  0
 20 22  1  0
 19 23  1  0
 18 24  1  0
 17 25  1  0
 15 26  1  0
 13 27  1  0
 11 28  1  0
 28 29  1  0
 29 30  1  0
 30 31  1  0
 30 32  1  0
 30 33  1  0
 29 34  1  6
 28 35  1  0
 28 36  1  0
  8 37  1  0
 37 38  2  0
 38 39  1  0
 39 40  1  0
 39 41  2  0
 41 42  1  0
 42 43  2  0
 43 44  1  0
 44 45  2  0
 42 46  1  0
 41 47  1  0
 38 48  1  0
  7 49  1  0
  7 50  1  0
  5 51  1  0
  5 52  1  0
  4 53  1  0
 53 54  1  0
  3 55  1  0
  1 56  1  0
  1 57  1  0
  1 58  1  0
 54  2  2  0
 44  6  1  0
 29  8  1  0
 43 37  1  0
 21 12  1  0
 21 16  1  0
M  END
>  <cnnaffinities>  (65) 
[6.82533]

>  <score>  (65) 
6.82533

>  <index>  (65) 
67

>  <Smiles>  (65) 
C(c1c(c(C(N2C([C@@]3(C(=O)N(c4c(nc(c5c(c(c(c(c45)[H])[H])[H])[H])[H])[H])C([C@@]3(C([H])([H])[H])[H])([H])[H])c3c(c(F)c(c(c3C2=O)[H])[H])[H])([H])[H])([H])[H])on1)[H])([H])([H])[H]

>  <h>  (65) 
<NA>

>  <Training>  (65) 
True

>  <Success>  (65) 
True

>  <enamine_searched>  (65) 
False

>  <enamine_id>  (65) 
nan

$$$$

     RDKit          3D

 65 70  0  0  0  0  0  0  0  0999 V2000
   -8.9702    0.3540  -21.2222 O   0  0  0  0  0  0  0  0  0  0  0  0
   -8.2726   -0.3759  -21.8981 C   0  0  0  0  0  0  0  0  0  0  0  0
   -7.4409   -1.4717  -21.2305 C   0  0  0  0  0  0  0  0  0  0  0  0
   -6.5712   -0.8806  -20.1475 C   0  0  0  0  0  0  0  0  0  0  0  0
   -6.8891   -1.0512  -18.8266 C   0  0  0  0  0  0  0  0  0  0  0  0
   -6.2063   -0.5208  -17.7813 N   0  0  0  0  0  0  0  0  0  0  0  0
   -5.1694    0.2247  -18.0607 C   0  0  0  0  0  0  0  0  0  0  0  0
   -4.7263    0.5036  -19.3816 C   0  0  0  0  0  0  0  0  0  0  0  0
   -3.6061    1.3379  -19.6283 C   0  0  0  0  0  0  0  0  0  0  0  0
   -3.2069    1.6050  -20.9092 C   0  0  0  0  0  0  0  0  0  0  0  0
   -3.9165    1.0467  -21.9959 C   0  0  0  0  0  0  0  0  0  0  0  0
   -5.0074    0.2381  -21.7789 C   0  0  0  0  0  0  0  0  0  0  0  0
   -5.4484   -0.0586  -20.4610 C   0  0  0  0  0  0  0  0  0  0  0  0
   -5.5556   -0.1512  -22.6327 H   0  0  0  0  0  0  0  0  0  0  0  0
   -3.6041    1.2695  -23.0130 H   0  0  0  0  0  0  0  0  0  0  0  0
   -2.3582    2.2573  -21.0979 H   0  0  0  0  0  0  0  0  0  0  0  0
   -3.0838    1.7652  -18.7750 H   0  0  0  0  0  0  0  0  0  0  0  0
   -4.6199    0.6501  -17.2183 H   0  0  0  0  0  0  0  0  0  0  0  0
   -7.7517   -1.6569  -18.5501 H   0  0  0  0  0  0  0  0  0  0  0  0
   -6.8471   -1.9918  -21.9880 H   0  0  0  0  0  0  0  0  0  0  0  0
   -8.1362   -2.1952  -20.7876 H   0  0  0  0  0  0  0  0  0  0  0  0
   -8.1365   -0.2944  -23.3097 N   0  0  0  0  0  0  0  0  0  0  0  0
   -8.6531   -1.4378  -24.1007 C   0  0  0  0  0  0  0  0  0  0  0  0
   -7.8108   -1.7818  -25.3098 C   0  0  0  0  0  0  0  0  0  0  0  0
   -6.4521   -2.0484  -25.1557 C   0  0  0  0  0  0  0  0  0  0  0  0
   -5.6511   -2.3157  -26.2586 C   0  0  0  0  0  0  0  0  0  0  0  0
   -6.1906   -2.3177  -27.5407 C   0  0  0  0  0  0  0  0  0  0  0  0
   -7.5458   -2.0533  -27.6906 C   0  0  0  0  0  0  0  0  0  0  0  0
   -8.2326   -2.0057  -29.2909 Cl  0  0  0  0  0  0  0  0  0  0  0  0
   -8.3631   -1.8025  -26.5918 C   0  0  0  0  0  0  0  0  0  0  0  0
   -9.4156   -1.5778  -26.7570 H   0  0  0  0  0  0  0  0  0  0  0  0
   -5.5730   -2.5130  -28.4114 H   0  0  0  0  0  0  0  0  0  0  0  0
   -4.5933   -2.5146  -26.1142 H   0  0  0  0  0  0  0  0  0  0  0  0
   -6.0008   -2.0153  -24.1649 H   0  0  0  0  0  0  0  0  0  0  0  0
   -8.6913   -2.2999  -23.4263 H   0  0  0  0  0  0  0  0  0  0  0  0
   -9.6871   -1.2476  -24.4303 H   0  0  0  0  0  0  0  0  0  0  0  0
   -8.3097    1.0267  -23.9150 C   0  0  2  0  0  0  0  0  0  0  0  0
   -7.6254    1.2100  -25.2985 C   0  0  0  0  0  0  0  0  0  0  0  0
   -7.4324    2.7371  -25.4383 C   0  0  0  0  0  0  0  0  0  0  0  0
   -8.1324    3.2392  -24.1949 C   0  0  2  0  0  0  0  0  0  0  0  0
   -7.7374    2.2297  -23.1299 C   0  0  0  0  0  0  0  0  0  0  0  0
   -6.6528    2.1633  -22.9804 H   0  0  0  0  0  0  0  0  0  0  0  0
   -8.2374    2.3825  -22.1693 H   0  0  0  0  0  0  0  0  0  0  0  0
   -9.6407    2.9493  -24.3964 N   0  0  2  0  0  4  0  0  0  0  0  0
  -10.5262    3.7768  -23.4968 C   0  0  0  0  0  0  0  0  0  0  0  0
  -10.4185    5.2255  -23.7340 C   0  0  0  0  0  0  0  0  0  0  0  0
  -10.6718    5.3067  -23.6593 C   0  0  0  0  0  0  0  0  0  0  0  0
   -9.8424    5.7673  -21.5187 O   0  0  0  0  0  0  0  0  0  0  0  0
   -9.4880    5.9385  -22.8410 C   0  0  0  0  0  0  0  0  0  0  0  0
   -8.4321    5.5752  -22.9247 H   0  0  0  0  0  0  0  0  0  0  0  0
   -9.3679    7.0257  -23.0537 H   0  0  0  0  0  0  0  0  0  0  0  0
  -12.0315    5.8273  -23.9940 H   0  0  0  0  0  0  0  0  0  0  0  0
  -11.3720    5.5171  -22.3589 H   0  0  0  0  0  0  0  0  0  0  0  0
  -10.2122    5.5967  -24.8402 H   0  0  0  0  0  0  0  0  0  0  0  0
  -10.2147    3.4634  -22.4770 H   0  0  0  0  0  0  0  0  0  0  0  0
  -11.5295    3.3310  -23.5983 H   0  0  0  0  0  0  0  0  0  0  0  0
   -9.7682    1.4861  -24.1197 C   0  0  0  0  0  0  0  0  0  0  0  0
  -10.2640    0.9819  -24.9565 H   0  0  0  0  0  0  0  0  0  0  0  0
  -10.3458    1.3222  -23.2049 H   0  0  0  0  0  0  0  0  0  0  0  0
   -9.9078    3.1614  -25.3756 H   0  0  0  0  0  0  0  0  0  0  0  0
   -8.0350    4.2924  -23.9719 H   0  0  0  0  0  0  0  0  0  0  0  0
   -6.3735    3.0142  -25.4215 H   0  0  0  0  0  0  0  0  0  0  0  0
   -7.8895    3.1553  -26.3406 H   0  0  0  0  0  0  0  0  0  0  0  0
   -6.6664    0.6882  -25.3072 H   0  0  0  0  0  0  0  0  0  0  0  0
   -8.2596    0.8217  -26.1014 H   0  0  0  0  0  0  0  0  0  0  0  0
  1  2  2  0
  2  3  1  0
  3  4  1  0
  4  5  2  0
  5  6  1  0
  6  7  2  0
  7  8  1  0
  8  9  2  0
  9 10  1  0
 10 11  2  0
 11 12  1  0
 12 13  2  0
 12 14  1  0
 11 15  1  0
 10 16  1  0
  9 17  1  0
  7 18  1  0
  5 19  1  0
  3 20  1  0
  3 21  1  0
  2 22  1  0
 22 23  1  0
 23 24  1  0
 24 25  2  0
 25 26  1  0
 26 27  2  0
 27 28  1  0
 28 29  1  0
 28 30  2  0
 30 31  1  0
 27 32  1  0
 26 33  1  0
 25 34  1  0
 23 35  1  0
 23 36  1  0
 37 22  1  1
 37 38  1  0
 38 39  1  0
 39 40  1  0
 40 41  1  0
 41 42  1  0
 41 43  1  0
 40 44  1  0
 44 45  1  0
 45 46  1  0
 46 47  1  0
 47 48  1  0
 48 49  1  0
 49 50  1  0
 49 51  1  0
 47 52  1  0
 47 53  1  0
 46 54  1  0
 45 55  1  0
 45 56  1  0
 44 57  1  0
 57 58  1  0
 57 59  1  0
 44 60  1  6
 40 61  1  1
 39 62  1  0
 39 63  1  0
 38 64  1  0
 38 65  1  0
 13  4  1  0
 30 24  1  0
 41 37  1  0
 49 46  1  0
 13  8  1  0
 57 37  1  0
M  CHG  1  44   1
M  END
>  <cnnaffinities>  (66) 
[5.4453]

>  <score>  (66) 
5.4453

>  <index>  (66) 
68

>  <Smiles>  (66) 
O=C(C(c1c(nc(c2c(c(c(c(c12)[H])[H])[H])[H])[H])[H])([H])[H])N(C(c1c(c(c(c(Cl)c1[H])[H])[H])[H])([H])[H])[C@]12C(C([C@](C1([H])[H])([N@+](C(C1(C(OC1([H])[H])([H])[H])[H])([H])[H])(C2([H])[H])[H])[H])([H])[H])([H])[H]

>  <h>  (66) 
<NA>

>  <Training>  (66) 
True

>  <Success>  (66) 
True

>  <enamine_searched>  (66) 
False

>  <enamine_id>  (66) 
nan

$$$$

     RDKit          3D

 63 67  0  0  0  0  0  0  0  0999 V2000
  -15.4247   -5.2137  -24.9735 C   0  0  0  0  0  0  0  0  0  0  0  0
  -14.5888   -4.5434  -24.1805 C   0  0  0  0  0  0  0  0  0  0  0  0
  -13.5437   -3.6295  -24.7338 C   0  0  0  0  0  0  0  0  0  0  0  0
  -13.4831   -3.3585  -25.9192 O   0  0  0  0  0  0  0  0  0  0  0  0
  -12.6201   -3.1337  -23.8030 N   0  0  0  0  0  0  0  0  0  0  0  0
  -13.0675   -2.7378  -22.4726 C   0  0  0  0  0  0  0  0  0  0  0  0
  -12.8738   -1.2401  -22.3542 C   0  0  0  0  0  0  0  0  0  0  0  0
  -11.3800   -0.9705  -22.3629 C   0  0  0  0  0  0  0  0  0  0  0  0
  -10.6793   -1.6386  -23.5249 C   0  0  0  0  0  0  0  0  0  0  0  0
  -11.3309   -2.6869  -24.2123 C   0  0  0  0  0  0  0  0  0  0  0  0
  -10.6806   -3.3142  -25.2796 C   0  0  0  0  0  0  0  0  0  0  0  0
   -9.4350   -2.8817  -25.7024 C   0  0  0  0  0  0  0  0  0  0  0  0
   -8.7870   -1.8452  -25.0402 C   0  0  0  0  0  0  0  0  0  0  0  0
   -9.3884   -1.2771  -23.9258 C   0  0  0  0  0  0  0  0  0  0  0  0
   -8.5620   -0.1706  -23.2055 N   0  0  1  0  0  4  0  0  0  0  0  0
   -8.9172    1.2766  -23.6300 C   0  0  0  0  0  0  0  0  0  0  0  0
   -7.7346    2.2049  -23.4499 C   0  0  0  0  0  0  0  0  0  0  0  0
   -7.6773    3.0478  -22.3387 C   0  0  0  0  0  0  0  0  0  0  0  0
   -6.7047    4.0322  -22.2519 C   0  0  0  0  0  0  0  0  0  0  0  0
   -5.7089    4.1371  -23.2157 C   0  0  0  0  0  0  0  0  0  0  0  0
   -5.6959    3.2119  -24.2580 C   0  0  0  0  0  0  0  0  0  0  0  0
   -4.3533    3.1956  -25.3873 Cl  0  0  0  0  0  0  0  0  0  0  0  0
   -6.7137    2.2764  -24.3996 C   0  0  0  0  0  0  0  0  0  0  0  0
   -6.7100    1.6101  -25.2587 H   0  0  0  0  0  0  0  0  0  0  0  0
   -4.9638    4.9238  -23.1529 H   0  0  0  0  0  0  0  0  0  0  0  0
   -6.7274    4.7471  -21.4356 H   0  0  0  0  0  0  0  0  0  0  0  0
   -8.4061    2.9072  -21.5511 H   0  0  0  0  0  0  0  0  0  0  0  0
   -9.2666    1.2445  -24.6640 H   0  0  0  0  0  0  0  0  0  0  0  0
   -9.7371    1.5945  -22.9865 H   0  0  0  0  0  0  0  0  0  0  0  0
   -8.4372   -0.2740  -21.7317 C   0  0  0  0  0  0  0  0  0  0  0  0
   -9.0959    0.4208  -21.0017 O   0  0  0  0  0  0  0  0  0  0  0  0
   -7.4813   -1.3570  -21.2368 C   0  0  0  0  0  0  0  0  0  0  0  0
   -6.5796   -0.8128  -20.1596 C   0  0  0  0  0  0  0  0  0  0  0  0
   -6.8538   -1.0468  -18.8387 C   0  0  0  0  0  0  0  0  0  0  0  0
   -6.1488   -0.5431  -17.7930 N   0  0  0  0  0  0  0  0  0  0  0  0
   -5.1378    0.2356  -18.0777 C   0  0  0  0  0  0  0  0  0  0  0  0
   -4.7311    0.5646  -19.3995 C   0  0  0  0  0  0  0  0  0  0  0  0
   -3.6119    1.3973  -19.6480 C   0  0  0  0  0  0  0  0  0  0  0  0
   -3.2216    1.6728  -20.9275 C   0  0  0  0  0  0  0  0  0  0  0  0
   -3.9381    1.1253  -22.0161 C   0  0  0  0  0  0  0  0  0  0  0  0
   -5.0409    0.3359  -21.8027 C   0  0  0  0  0  0  0  0  0  0  0  0
   -5.4692    0.0272  -20.4823 C   0  0  0  0  0  0  0  0  0  0  0  0
   -5.5763   -0.0587  -22.6623 H   0  0  0  0  0  0  0  0  0  0  0  0
   -3.6001    1.3247  -23.0311 H   0  0  0  0  0  0  0  0  0  0  0  0
   -2.3629    2.3116  -21.1125 H   0  0  0  0  0  0  0  0  0  0  0  0
   -3.0739    1.8070  -18.7970 H   0  0  0  0  0  0  0  0  0  0  0  0
   -4.5738    0.6457  -17.2384 H   0  0  0  0  0  0  0  0  0  0  0  0
   -7.6868   -1.6942  -18.5607 H   0  0  0  0  0  0  0  0  0  0  0  0
   -6.9048   -1.7697  -22.0713 H   0  0  0  0  0  0  0  0  0  0  0  0
   -8.1067   -2.1714  -20.8442 H   0  0  0  0  0  0  0  0  0  0  0  0
   -7.6054   -0.3431  -23.5762 H   0  0  0  0  0  0  0  0  0  0  0  0
   -7.8209   -1.4982  -25.3965 H   0  0  0  0  0  0  0  0  0  0  0  0
   -8.9701   -3.3438  -26.5705 H   0  0  0  0  0  0  0  0  0  0  0  0
  -11.1698   -4.1281  -25.7994 H   0  0  0  0  0  0  0  0  0  0  0  0
  -11.1903    0.1049  -22.3525 H   0  0  0  0  0  0  0  0  0  0  0  0
  -10.9503   -1.3653  -21.4329 H   0  0  0  0  0  0  0  0  0  0  0  0
  -13.3522   -0.7604  -23.2156 H   0  0  0  0  0  0  0  0  0  0  0  0
  -13.3495   -0.8472  -21.4493 H   0  0  0  0  0  0  0  0  0  0  0  0
  -12.4932   -3.2735  -21.7049 H   0  0  0  0  0  0  0  0  0  0  0  0
  -14.1155   -3.0020  -22.3488 H   0  0  0  0  0  0  0  0  0  0  0  0
  -14.6120   -4.6838  -23.1068 H   0  0  0  0  0  0  0  0  0  0  0  0
  -16.1959   -5.8647  -24.5716 H   0  0  0  0  0  0  0  0  0  0  0  0
  -15.3368   -5.1387  -26.0526 H   0  0  0  0  0  0  0  0  0  0  0  0
  1  2  2  0
  2  3  1  0
  3  4  2  0
  3  5  1  0
  5  6  1  0
  6  7  1  0
  7  8  1  0
  8  9  1  0
  9 10  2  0
 10 11  1  0
 11 12  2  0
 12 13  1  0
 13 14  2  0
 14 15  1  0
 15 16  1  0
 16 17  1  0
 17 18  2  0
 18 19  1  0
 19 20  2  0
 20 21  1  0
 21 22  1  0
 21 23  2  0
 23 24  1  0
 20 25  1  0
 19 26  1  0
 18 27  1  0
 16 28  1  0
 16 29  1  0
 15 30  1  0
 30 31  2  0
 30 32  1  0
 32 33  1  0
 33 34  2  0
 34 35  1  0
 35 36  2  0
 36 37  1  0
 37 38  2  0
 38 39  1  0
 39 40  2  0
 40 41  1  0
 41 42  2  0
 41 43  1  0
 40 44  1  0
 39 45  1  0
 38 46  1  0
 36 47  1  0
 34 48  1  0
 32 49  1  0
 32 50  1  0
 15 51  1  6
 13 52  1  0
 12 53  1  0
 11 54  1  0
  8 55  1  0
  8 56  1  0
  7 57  1  0
  7 58  1  0
  6 59  1  0
  6 60  1  0
  2 61  1  0
  1 62  1  0
  1 63  1  0
 10  5  1  0
 23 17  1  0
 42 33  1  0
 14  9  1  0
 42 37  1  0
M  CHG  1  15   1
M  END
>  <cnnaffinities>  (67) 
[6.49608]

>  <score>  (67) 
6.49608

>  <index>  (67) 
69

>  <Smiles>  (67) 
C(=C(C(=O)N1C(C(C(c2c1c(c(c(c2[N@@+](C(c1c(c(c(c(Cl)c1[H])[H])[H])[H])([H])[H])(C(=O)C(c1c(nc(c2c(c(c(c(c12)[H])[H])[H])[H])[H])[H])([H])[H])[H])[H])[H])[H])([H])[H])([H])[H])([H])[H])[H])([H])[H]

>  <h>  (67) 
<NA>

>  <Training>  (67) 
True

>  <Success>  (67) 
True

>  <enamine_searched>  (67) 
False

>  <enamine_id>  (67) 
nan

$$$$

     RDKit          3D

 52 54  0  0  0  0  0  0  0  0999 V2000
   -5.6959    2.0501  -27.4779 C   0  0  0  0  0  0  0  0  0  0  0  0
   -6.5935    2.0655  -26.2400 C   0  0  0  0  0  0  0  0  0  0  0  0
   -6.0204    3.0284  -25.1996 C   0  0  0  0  0  0  0  0  0  0  0  0
   -5.8796    4.0312  -25.6158 H   0  0  0  0  0  0  0  0  0  0  0  0
   -6.6808    3.1183  -24.3302 H   0  0  0  0  0  0  0  0  0  0  0  0
   -5.0421    2.6907  -24.8383 H   0  0  0  0  0  0  0  0  0  0  0  0
   -6.7971    0.6563  -25.6495 C   0  0  0  0  0  0  0  0  0  0  0  0
   -8.1362   -0.0760  -25.9428 C   0  0  0  0  0  0  0  0  0  0  0  0
   -8.3256   -0.2016  -27.4588 C   0  0  0  0  0  0  0  0  0  0  0  0
   -7.4856   -0.7291  -27.9276 H   0  0  0  0  0  0  0  0  0  0  0  0
   -9.2347   -0.7631  -27.7011 H   0  0  0  0  0  0  0  0  0  0  0  0
   -8.4146    0.7726  -27.9496 H   0  0  0  0  0  0  0  0  0  0  0  0
   -9.3347    0.6686  -25.3359 C   0  0  0  0  0  0  0  0  0  0  0  0
   -9.2640    0.8010  -23.8117 C   0  0  0  0  0  0  0  0  0  0  0  0
   -8.7406   -0.4171  -23.1893 N   0  0  0  0  0  0  0  0  0  0  0  0
   -8.4187   -0.3582  -21.8551 C   0  0  0  0  0  0  0  0  0  0  0  0
   -8.8621    0.5201  -21.1336 O   0  0  0  0  0  0  0  0  0  0  0  0
   -7.4419   -1.4079  -21.2780 C   0  0  0  0  0  0  0  0  0  0  0  0
   -6.5779   -0.8304  -20.1789 C   0  0  0  0  0  0  0  0  0  0  0  0
   -6.8773   -1.0394  -18.8576 C   0  0  0  0  0  0  0  0  0  0  0  0
   -6.1849   -0.5346  -17.8014 N   0  0  0  0  0  0  0  0  0  0  0  0
   -5.1532    0.2231  -18.0660 C   0  0  0  0  0  0  0  0  0  0  0  0
   -4.7203    0.5374  -19.3821 C   0  0  0  0  0  0  0  0  0  0  0  0
   -3.5983    1.3718  -19.6233 C   0  0  0  0  0  0  0  0  0  0  0  0
   -3.2113    1.6644  -20.9023 C   0  0  0  0  0  0  0  0  0  0  0  0
   -3.9342    1.1301  -21.9925 C   0  0  0  0  0  0  0  0  0  0  0  0
   -5.0216    0.3175  -21.7841 C   0  0  0  0  0  0  0  0  0  0  0  0
   -5.4514   -0.0020  -20.4714 C   0  0  0  0  0  0  0  0  0  0  0  0
   -5.5585   -0.0875  -22.6362 H   0  0  0  0  0  0  0  0  0  0  0  0
   -3.6176    1.3655  -23.0049 H   0  0  0  0  0  0  0  0  0  0  0  0
   -2.3591    2.3117  -21.0889 H   0  0  0  0  0  0  0  0  0  0  0  0
   -3.0581    1.7819  -18.7725 H   0  0  0  0  0  0  0  0  0  0  0  0
   -4.5998    0.6282  -17.2154 H   0  0  0  0  0  0  0  0  0  0  0  0
   -7.7293   -1.6597  -18.5817 H   0  0  0  0  0  0  0  0  0  0  0  0
   -8.0441   -2.2265  -20.8588 H   0  0  0  0  0  0  0  0  0  0  0  0
   -6.8142   -1.8461  -22.0648 H   0  0  0  0  0  0  0  0  0  0  0  0
   -8.8426   -1.6263  -23.9904 C   0  0  0  0  0  0  0  0  0  0  0  0
   -8.0962   -1.4980  -25.3226 C   0  0  0  0  0  0  0  0  0  0  0  0
   -7.0561   -1.8092  -25.1904 H   0  0  0  0  0  0  0  0  0  0  0  0
   -8.5317   -2.2259  -26.0175 H   0  0  0  0  0  0  0  0  0  0  0  0
   -9.8994   -1.8539  -24.1880 H   0  0  0  0  0  0  0  0  0  0  0  0
   -8.4629   -2.4707  -23.4166 H   0  0  0  0  0  0  0  0  0  0  0  0
  -10.2512    1.0600  -23.4101 H   0  0  0  0  0  0  0  0  0  0  0  0
   -8.6096    1.6388  -23.5475 H   0  0  0  0  0  0  0  0  0  0  0  0
   -9.4271    1.6641  -25.7816 H   0  0  0  0  0  0  0  0  0  0  0  0
  -10.2606    0.1554  -25.6232 H   0  0  0  0  0  0  0  0  0  0  0  0
   -6.6625    0.6896  -24.5621 H   0  0  0  0  0  0  0  0  0  0  0  0
   -5.9785    0.0150  -26.0024 H   0  0  0  0  0  0  0  0  0  0  0  0
   -7.5617    2.4731  -26.5468 H   0  0  0  0  0  0  0  0  0  0  0  0
   -5.6115    3.0475  -27.9223 H   0  0  0  0  0  0  0  0  0  0  0  0
   -6.0658    1.3703  -28.2516 H   0  0  0  0  0  0  0  0  0  0  0  0
   -4.6797    1.7300  -27.2199 H   0  0  0  0  0  0  0  0  0  0  0  0
  1  2  1  0
  2  3  1  0
  3  4  1  0
  3  5  1  0
  3  6  1  0
  2  7  1  0
  7  8  1  0
  8  9  1  0
  9 10  1  0
  9 11  1  0
  9 12  1  0
  8 13  1  0
 13 14  1  0
 14 15  1  0
 15 16  1  0
 16 17  2  0
 16 18  1  0
 18 19  1  0
 19 20  2  0
 20 21  1  0
 21 22  2  0
 22 23  1  0
 23 24  2  0
 24 25  1  0
 25 26  2  0
 26 27  1  0
 27 28  2  0
 27 29  1  0
 26 30  1  0
 25 31  1  0
 24 32  1  0
 22 33  1  0
 20 34  1  0
 18 35  1  0
 18 36  1  0
 15 37  1  0
 37 38  1  0
 38 39  1  0
 38 40  1  0
 37 41  1  0
 37 42  1  0
 14 43  1  0
 14 44  1  0
 13 45  1  0
 13 46  1  0
  7 47  1  0
  7 48  1  0
  2 49  1  0
  1 50  1  0
  1 51  1  0
  1 52  1  0
 38  8  1  0
 28 19  1  0
 28 23  1  0
M  END
>  <cnnaffinities>  (68) 
[5.37958, 5.35872, 5.35343, 5.11944, 5.11942, 5.10673, 5.22225, 5.22221, 5.22229, 5.22228, 5.11817, 5.11814, 5.11798, 4.71533, 5.11263, 4.96187, 4.95796, 5.09967, 5.09334, 4.92023, 4.69881, 5.00851, 5.45461, 5.0082, 5.45287, 5.02411, 4.94878, 5.158, 4.86093, 5.0373, 5.159, 4.9863, 4.98632, 4.98624, 5.06381]

>  <score>  (68) 
5.37958

>  <index>  (68) 
70

>  <Smiles>  (68) 
C(C(C([H])([H])[H])(C(C1(C([H])([H])[H])C(C(N(C(=O)C(c2c(nc(c3c(c(c(c(c23)[H])[H])[H])[H])[H])[H])([H])[H])C(C1([H])[H])([H])[H])([H])[H])([H])[H])([H])[H])[H])([H])([H])[H]

>  <h>  (68) 
<NA>

>  <Training>  (68) 
True

>  <Success>  (68) 
True

>  <enamine_searched>  (68) 
False

>  <enamine_id>  (68) 
nan

$$$$

     RDKit          3D

 50 54  0  0  0  0  0  0  0  0999 V2000
  -10.4360   -1.1211  -23.3002 C   0  0  0  0  0  0  0  0  0  0  0  0
   -8.9924   -1.4633  -22.9566 C   0  0  1  0  0  0  0  0  0  0  0  0
   -8.3905   -0.5126  -21.9092 C   0  0  0  0  0  0  0  0  0  0  0  0
   -7.3952   -1.3373  -21.2404 N   0  0  0  0  0  0  0  0  0  0  0  0
   -6.5782   -0.8436  -20.1964 C   0  0  0  0  0  0  0  0  0  0  0  0
   -6.8831   -1.0959  -18.8805 C   0  0  0  0  0  0  0  0  0  0  0  0
   -6.2084   -0.5660  -17.8316 N   0  0  0  0  0  0  0  0  0  0  0  0
   -5.1924    0.2151  -18.0949 C   0  0  0  0  0  0  0  0  0  0  0  0
   -4.7456    0.5264  -19.4115 C   0  0  0  0  0  0  0  0  0  0  0  0
   -3.6181    1.3522  -19.6459 C   0  0  0  0  0  0  0  0  0  0  0  0
   -3.2158    1.6161  -20.9261 C   0  0  0  0  0  0  0  0  0  0  0  0
   -3.9164    1.0678  -22.0240 C   0  0  0  0  0  0  0  0  0  0  0  0
   -5.0118    0.2654  -21.8223 C   0  0  0  0  0  0  0  0  0  0  0  0
   -5.4563   -0.0142  -20.5025 C   0  0  0  0  0  0  0  0  0  0  0  0
   -5.5332   -0.1713  -22.6675 H   0  0  0  0  0  0  0  0  0  0  0  0
   -3.5855    1.2814  -23.0347 H   0  0  0  0  0  0  0  0  0  0  0  0
   -2.3600    2.2576  -21.1072 H   0  0  0  0  0  0  0  0  0  0  0  0
   -3.0914    1.7643  -18.7903 H   0  0  0  0  0  0  0  0  0  0  0  0
   -4.6547    0.6343  -17.2458 H   0  0  0  0  0  0  0  0  0  0  0  0
   -7.7239   -1.7394  -18.6347 H   0  0  0  0  0  0  0  0  0  0  0  0
   -7.5544   -2.6890  -21.4645 C   0  0  0  0  0  0  0  0  0  0  0  0
   -6.8144   -3.5521  -21.0344 O   0  0  0  0  0  0  0  0  0  0  0  0
   -8.7844   -2.8994  -22.3560 C   0  0  1  0  0  0  0  0  0  0  0  0
   -9.9783   -3.3363  -21.4752 C   0  0  0  0  0  0  0  0  0  0  0  0
  -11.1197   -3.7379  -22.2900 N   0  0  0  0  0  0  0  0  0  0  0  0
  -12.4814   -3.5315  -21.8479 C   0  0  0  0  0  0  0  0  0  0  0  0
  -13.3161   -2.6964  -22.7276 C   0  0  0  0  0  0  0  0  0  0  0  0
  -14.0525   -2.0276  -23.3205 N   0  0  0  0  0  0  0  0  0  0  0  0
  -12.5014   -3.0653  -20.8654 H   0  0  0  0  0  0  0  0  0  0  0  0
  -12.9810   -4.4890  -21.7795 H   0  0  0  0  0  0  0  0  0  0  0  0
  -10.9719   -4.5607  -23.3782 C   0  0  0  0  0  0  0  0  0  0  0  0
  -11.9239   -5.0611  -23.9535 O   0  0  0  0  0  0  0  0  0  0  0  0
   -9.5736   -4.7846  -23.8435 C   0  0  0  0  0  0  0  0  0  0  0  0
   -9.3358   -5.7865  -24.7870 C   0  0  0  0  0  0  0  0  0  0  0  0
   -8.0794   -5.9427  -25.3464 C   0  0  0  0  0  0  0  0  0  0  0  0
   -7.0693   -5.0797  -24.9302 C   0  0  0  0  0  0  0  0  0  0  0  0
   -5.8526   -5.1936  -25.4898 F   0  0  0  0  0  0  0  0  0  0  0  0
   -7.2650   -4.1184  -23.9582 C   0  0  0  0  0  0  0  0  0  0  0  0
   -8.5351   -3.9693  -23.3900 C   0  0  0  0  0  0  0  0  0  0  0  0
   -6.4253   -3.5122  -23.6317 H   0  0  0  0  0  0  0  0  0  0  0  0
   -7.8685   -6.7020  -26.0963 H   0  0  0  0  0  0  0  0  0  0  0  0
  -10.1561   -6.4318  -25.0856 H   0  0  0  0  0  0  0  0  0  0  0  0
   -9.6716   -4.1671  -20.8251 H   0  0  0  0  0  0  0  0  0  0  0  0
  -10.2574   -2.4692  -20.8653 H   0  0  0  0  0  0  0  0  0  0  0  0
   -9.1607   -0.1589  -21.2008 H   0  0  0  0  0  0  0  0  0  0  0  0
   -7.9275    0.3698  -22.3664 H   0  0  0  0  0  0  0  0  0  0  0  0
   -8.3754   -1.4263  -23.8668 H   0  0  0  0  0  0  0  0  0  0  0  0
  -10.5209   -0.1448  -23.7823 H   0  0  0  0  0  0  0  0  0  0  0  0
  -11.0385   -1.1094  -22.3840 H   0  0  0  0  0  0  0  0  0  0  0  0
  -10.8545   -1.8858  -23.9603 H   0  0  0  0  0  0  0  0  0  0  0  0
  1  2  1  0
  2  3  1  0
  3  4  1  0
  4  5  1  0
  5  6  2  0
  6  7  1  0
  7  8  2  0
  8  9  1  0
  9 10  2  0
 10 11  1  0
 11 12  2  0
 12 13  1  0
 13 14  2  0
 13 15  1  0
 12 16  1  0
 11 17  1  0
 10 18  1  0
  8 19  1  0
  6 20  1  0
  4 21  1  0
 21 22  2  0
 21 23  1  0
 23 24  1  1
 24 25  1  0
 25 26  1  0
 26 27  1  0
 27 28  3  0
 26 29  1  0
 26 30  1  0
 25 31  1  0
 31 32  2  0
 31 33  1  0
 33 34  2  0
 34 35  1  0
 35 36  2  0
 36 37  1  0
 36 38  1  0
 38 39  2  0
 38 40  1  0
 35 41  1  0
 34 42  1  0
 24 43  1  0
 24 44  1  0
  3 45  1  0
  3 46  1  0
  2 47  1  6
  1 48  1  0
  1 49  1  0
  1 50  1  0
 23  2  1  0
 39 33  1  0
 14  5  1  0
 39 23  1  0
 14  9  1  0
M  END
>  <cnnaffinities>  (69) 
[6.55171]

>  <score>  (69) 
6.55171

>  <index>  (69) 
71

>  <Smiles>  (69) 
C([C@]1(C(N(c2c(nc(c3c(c(c(c(c23)[H])[H])[H])[H])[H])[H])C(=O)[C@]21C(N(C(C#N)([H])[H])C(=O)c1c(c(c(F)c(c21)[H])[H])[H])([H])[H])([H])[H])[H])([H])([H])[H]

>  <h>  (69) 
<NA>

>  <Training>  (69) 
True

>  <Success>  (69) 
True

>  <enamine_searched>  (69) 
False

>  <enamine_id>  (69) 
nan

$$$$

     RDKit          3D

 41 44  0  0  0  0  0  0  0  0999 V2000
   -8.5128    0.7263  -21.4687 O   0  0  0  0  0  0  0  0  0  0  0  0
   -8.3662   -0.3902  -21.9344 C   0  0  0  0  0  0  0  0  0  0  0  0
   -7.4301   -1.4219  -21.2787 C   0  0  0  0  0  0  0  0  0  0  0  0
   -6.5809   -0.8260  -20.1866 C   0  0  0  0  0  0  0  0  0  0  0  0
   -6.8842   -1.0378  -18.8690 C   0  0  0  0  0  0  0  0  0  0  0  0
   -6.1958   -0.5329  -17.8129 N   0  0  0  0  0  0  0  0  0  0  0  0
   -5.1599    0.2213  -18.0760 C   0  0  0  0  0  0  0  0  0  0  0  0
   -4.7253    0.5351  -19.3894 C   0  0  0  0  0  0  0  0  0  0  0  0
   -3.5994    1.3639  -19.6252 C   0  0  0  0  0  0  0  0  0  0  0  0
   -3.2113    1.6548  -20.9046 C   0  0  0  0  0  0  0  0  0  0  0  0
   -3.9340    1.1273  -21.9965 C   0  0  0  0  0  0  0  0  0  0  0  0
   -5.0277    0.3223  -21.7940 C   0  0  0  0  0  0  0  0  0  0  0  0
   -5.4553    0.0039  -20.4779 C   0  0  0  0  0  0  0  0  0  0  0  0
   -5.5785   -0.0740  -22.6413 H   0  0  0  0  0  0  0  0  0  0  0  0
   -3.6262    1.3623  -23.0115 H   0  0  0  0  0  0  0  0  0  0  0  0
   -2.3579    2.3029  -21.0839 H   0  0  0  0  0  0  0  0  0  0  0  0
   -3.0703    1.7647  -18.7648 H   0  0  0  0  0  0  0  0  0  0  0  0
   -4.6109    0.6211  -17.2218 H   0  0  0  0  0  0  0  0  0  0  0  0
   -7.7337   -1.6592  -18.5848 H   0  0  0  0  0  0  0  0  0  0  0  0
   -6.8137   -1.8975  -22.0544 H   0  0  0  0  0  0  0  0  0  0  0  0
   -8.0555   -2.2238  -20.8577 H   0  0  0  0  0  0  0  0  0  0  0  0
   -9.0271   -0.7789  -23.0793 N   0  0  0  0  0  0  0  0  0  0  0  0
   -9.3517   -2.1623  -23.4063 C   0  0  0  0  0  0  0  0  0  0  0  0
  -10.6132   -2.7035  -22.7163 C   0  0  0  0  0  0  0  0  0  0  0  0
  -11.9236   -2.0717  -23.2210 C   0  0  0  0  0  0  0  0  0  0  0  0
  -12.0903   -0.6231  -22.8341 C   0  0  0  0  0  0  0  0  0  0  0  0
  -13.5541   -0.0678  -22.1157 S   0  0  0  0  0  0  0  0  0  0  0  0
  -12.9298    1.5202  -21.9076 C   0  0  0  0  0  0  0  0  0  0  0  0
  -11.6930    1.6397  -22.4546 C   0  0  0  0  0  0  0  0  0  0  0  0
  -11.2079    0.4026  -22.9906 C   0  0  0  0  0  0  0  0  0  0  0  0
   -9.8811    0.2334  -23.6900 C   0  0  0  0  0  0  0  0  0  0  0  0
   -9.3455    1.1859  -23.6812 H   0  0  0  0  0  0  0  0  0  0  0  0
  -10.0379   -0.0819  -24.7309 H   0  0  0  0  0  0  0  0  0  0  0  0
  -11.1496    2.5771  -22.4992 H   0  0  0  0  0  0  0  0  0  0  0  0
  -13.5027    2.2496  -21.3487 H   0  0  0  0  0  0  0  0  0  0  0  0
  -12.7805   -2.6383  -22.8410 H   0  0  0  0  0  0  0  0  0  0  0  0
  -11.9719   -2.1329  -24.3215 H   0  0  0  0  0  0  0  0  0  0  0  0
  -10.6671   -3.7810  -22.9085 H   0  0  0  0  0  0  0  0  0  0  0  0
  -10.5396   -2.5826  -21.6239 H   0  0  0  0  0  0  0  0  0  0  0  0
   -8.4844   -2.7924  -23.1805 H   0  0  0  0  0  0  0  0  0  0  0  0
   -9.5066   -2.1925  -24.4971 H   0  0  0  0  0  0  0  0  0  0  0  0
  1  2  2  0
  2  3  1  0
  3  4  1  0
  4  5  2  0
  5  6  1  0
  6  7  2  0
  7  8  1  0
  8  9  2  0
  9 10  1  0
 10 11  2  0
 11 12  1  0
 12 13  2  0
 12 14  1  0
 11 15  1  0
 10 16  1  0
  9 17  1  0
  7 18  1  0
  5 19  1  0
  3 20  1  0
  3 21  1  0
  2 22  1  0
 22 23  1  0
 23 24  1  0
 24 25  1  0
 25 26  1  0
 26 27  1  0
 27 28  1  0
 28 29  2  0
 29 30  1  0
 30 31  1  0
 31 32  1  0
 31 33  1  0
 29 34  1  0
 28 35  1  0
 25 36  1  0
 25 37  1  0
 24 38  1  0
 24 39  1  0
 23 40  1  0
 23 41  1  0
 13  4  1  0
 31 22  1  0
 13  8  1  0
 30 26  2  0
M  END
>  <cnnaffinities>  (70) 
[5.27914, 5.14289, 5.33301, 5.12062]

>  <score>  (70) 
5.27914

>  <index>  (70) 
72

>  <Smiles>  (70) 
O=C(C(c1c(nc(c2c(c(c(c(c12)[H])[H])[H])[H])[H])[H])([H])[H])N1C(C(C(c2sc(c(c2C1([H])[H])[H])[H])([H])[H])([H])[H])([H])[H]

>  <h>  (70) 
<NA>

>  <Training>  (70) 
True

>  <Success>  (70) 
True

>  <enamine_searched>  (70) 
False

>  <enamine_id>  (70) 
nan

$$$$

     RDKit          3D

 50 53  0  0  0  0  0  0  0  0999 V2000
   -5.6008   -3.0329  -21.5755 O   0  0  0  0  0  0  0  0  0  0  0  0
   -6.7571   -2.7540  -21.8600 C   0  0  0  0  0  0  0  0  0  0  0  0
   -7.4142   -1.4796  -21.2695 C   0  0  0  0  0  0  0  0  0  0  0  0
   -6.5806   -0.8309  -20.1854 C   0  0  0  0  0  0  0  0  0  0  0  0
   -6.8728   -1.0448  -18.8655 C   0  0  0  0  0  0  0  0  0  0  0  0
   -6.1830   -0.5389  -17.8079 N   0  0  0  0  0  0  0  0  0  0  0  0
   -5.1559    0.2237  -18.0700 C   0  0  0  0  0  0  0  0  0  0  0  0
   -4.7188    0.5318  -19.3836 C   0  0  0  0  0  0  0  0  0  0  0  0
   -3.5911    1.3576  -19.6240 C   0  0  0  0  0  0  0  0  0  0  0  0
   -3.1879    1.6331  -20.8998 C   0  0  0  0  0  0  0  0  0  0  0  0
   -3.9018    1.0877  -21.9927 C   0  0  0  0  0  0  0  0  0  0  0  0
   -4.9979    0.2878  -21.7859 C   0  0  0  0  0  0  0  0  0  0  0  0
   -5.4452   -0.0137  -20.4765 C   0  0  0  0  0  0  0  0  0  0  0  0
   -5.5231   -0.1341  -22.6376 H   0  0  0  0  0  0  0  0  0  0  0  0
   -3.5781    1.3063  -23.0049 H   0  0  0  0  0  0  0  0  0  0  0  0
   -2.3279    2.2715  -21.0863 H   0  0  0  0  0  0  0  0  0  0  0  0
   -3.0561    1.7720  -18.7699 H   0  0  0  0  0  0  0  0  0  0  0  0
   -4.6031    0.6271  -17.2161 H   0  0  0  0  0  0  0  0  0  0  0  0
   -7.7180   -1.6681  -18.5819 H   0  0  0  0  0  0  0  0  0  0  0  0
   -7.6149   -0.7497  -22.0660 H   0  0  0  0  0  0  0  0  0  0  0  0
   -8.3949   -1.7474  -20.8491 H   0  0  0  0  0  0  0  0  0  0  0  0
   -7.5203   -3.5826  -22.6615 N   0  0  0  0  0  0  0  0  0  0  0  0
   -8.6628   -3.1253  -23.4509 C   0  0  0  0  0  0  0  0  0  0  0  0
   -9.7336   -4.2012  -23.5641 C   0  0  0  0  0  0  0  0  0  0  0  0
   -9.1621   -5.5017  -24.1045 C   0  0  0  0  0  0  0  0  0  0  0  0
   -7.9855   -5.9353  -23.2418 C   0  0  0  0  0  0  0  0  0  0  0  0
   -6.9127   -4.8513  -23.1006 C   0  0  1  0  0  0  0  0  0  0  0  0
   -6.0432   -4.6964  -24.3695 C   0  0  0  0  0  0  0  0  0  0  0  0
   -5.2087   -5.9201  -24.6882 C   0  0  0  0  0  0  0  0  0  0  0  0
   -4.0474   -6.1894  -23.9579 C   0  0  0  0  0  0  0  0  0  0  0  0
   -3.2849   -7.3205  -24.2201 C   0  0  0  0  0  0  0  0  0  0  0  0
   -3.6703   -8.2117  -25.2176 C   0  0  0  0  0  0  0  0  0  0  0  0
   -4.8278   -7.9607  -25.9497 C   0  0  0  0  0  0  0  0  0  0  0  0
   -5.5854   -6.8248  -25.6833 C   0  0  0  0  0  0  0  0  0  0  0  0
   -6.4943   -6.6403  -26.2527 H   0  0  0  0  0  0  0  0  0  0  0  0
   -5.1416   -8.6462  -26.7318 H   0  0  0  0  0  0  0  0  0  0  0  0
   -3.0716   -9.0920  -25.4259 H   0  0  0  0  0  0  0  0  0  0  0  0
   -2.3831   -7.5093  -23.6435 H   0  0  0  0  0  0  0  0  0  0  0  0
   -3.7438   -5.4989  -23.1743 H   0  0  0  0  0  0  0  0  0  0  0  0
   -6.6853   -4.4569  -25.2239 H   0  0  0  0  0  0  0  0  0  0  0  0
   -5.3824   -3.8374  -24.2149 H   0  0  0  0  0  0  0  0  0  0  0  0
   -6.2400   -5.1508  -22.2981 H   0  0  0  0  0  0  0  0  0  0  0  0
   -8.3499   -6.1921  -22.2439 H   0  0  0  0  0  0  0  0  0  0  0  0
   -7.5382   -6.8521  -23.6373 H   0  0  0  0  0  0  0  0  0  0  0  0
   -9.9315   -6.2801  -24.1287 H   0  0  0  0  0  0  0  0  0  0  0  0
   -8.8388   -5.3748  -25.1450 H   0  0  0  0  0  0  0  0  0  0  0  0
  -10.1658   -4.3759  -22.5764 H   0  0  0  0  0  0  0  0  0  0  0  0
  -10.5504   -3.8477  -24.1995 H   0  0  0  0  0  0  0  0  0  0  0  0
   -9.0835   -2.2323  -22.9918 H   0  0  0  0  0  0  0  0  0  0  0  0
   -8.3547   -2.8303  -24.4654 H   0  0  0  0  0  0  0  0  0  0  0  0
  1  2  2  0
  2  3  1  0
  3  4  1  0
  4  5  2  0
  5  6  1  0
  6  7  2  0
  7  8  1  0
  8  9  2  0
  9 10  1  0
 10 11  2  0
 11 12  1  0
 12 13  2  0
 12 14  1  0
 11 15  1  0
 10 16  1  0
  9 17  1  0
  7 18  1  0
  5 19  1  0
  3 20  1  0
  3 21  1  0
  2 22  1  0
 22 23  1  0
 23 24  1  0
 24 25  1  0
 25 26  1  0
 26 27  1  0
 27 28  1  0
 28 29  1  0
 29 30  2  0
 30 31  1  0
 31 32  2  0
 32 33  1  0
 33 34  2  0
 34 35  1  0
 33 36  1  0
 32 37  1  0
 31 38  1  0
 30 39  1  0
 28 40  1  0
 28 41  1  0
 27 42  1  1
 26 43  1  0
 26 44  1  0
 25 45  1  0
 25 46  1  0
 24 47  1  0
 24 48  1  0
 23 49  1  0
 23 50  1  0
 13  4  1  0
 27 22  1  0
 34 29  1  0
 13  8  1  0
M  END
>  <cnnaffinities>  (71) 
[5.75278]

>  <score>  (71) 
5.75278

>  <index>  (71) 
73

>  <Smiles>  (71) 
O=C(C(c1c(nc(c2c(c(c(c(c12)[H])[H])[H])[H])[H])[H])([H])[H])N1C(C(C(C([C@]1(C(c1c(c(c(c(c1[H])[H])[H])[H])[H])([H])[H])[H])([H])[H])([H])[H])([H])[H])([H])[H]

>  <h>  (71) 
<NA>

>  <Training>  (71) 
True

>  <Success>  (71) 
True

>  <enamine_searched>  (71) 
False

>  <enamine_id>  (71) 
nan

$$$$

     RDKit          3D

 43 47  0  0  0  0  0  0  0  0999 V2000
   -9.4239   -0.4509  -20.9891 O   0  0  0  0  0  0  0  0  0  0  0  0
   -8.7434   -1.3641  -21.3802 C   0  0  0  0  0  0  0  0  0  0  0  0
   -9.1369   -2.4535  -22.1113 N   0  0  0  0  0  0  0  0  0  0  0  0
   -8.0405   -3.1475  -22.7400 C   0  0  1  0  0  0  0  0  0  0  0  0
   -8.1056   -4.6900  -22.7164 C   0  0  0  0  0  0  0  0  0  0  0  0
   -8.2245   -4.7217  -24.2745 C   0  0  2  0  0  0  0  0  0  0  0  0
   -7.1762   -5.5210  -24.9843 C   0  0  0  0  0  0  0  0  0  0  0  0
   -5.8198   -5.2761  -24.7394 C   0  0  0  0  0  0  0  0  0  0  0  0
   -4.8285   -6.0088  -25.3816 C   0  0  0  0  0  0  0  0  0  0  0  0
   -5.1777   -7.0083  -26.2879 C   0  0  0  0  0  0  0  0  0  0  0  0
   -6.5172   -7.2656  -26.5465 C   0  0  0  0  0  0  0  0  0  0  0  0
   -7.4973   -6.5303  -25.8920 C   0  0  0  0  0  0  0  0  0  0  0  0
   -9.1657   -6.9181  -26.2468 Cl  0  0  0  0  0  0  0  0  0  0  0  0
   -6.8197   -8.0230  -27.2605 H   0  0  0  0  0  0  0  0  0  0  0  0
   -4.4107   -7.5857  -26.7968 H   0  0  0  0  0  0  0  0  0  0  0  0
   -3.7844   -5.7930  -25.1761 H   0  0  0  0  0  0  0  0  0  0  0  0
   -5.5486   -4.4929  -24.0287 H   0  0  0  0  0  0  0  0  0  0  0  0
   -8.0356   -3.1697  -24.2981 C   0  0  0  0  0  0  0  0  0  0  0  0
   -8.8573   -2.6036  -24.7523 H   0  0  0  0  0  0  0  0  0  0  0  0
   -7.0984   -2.8270  -24.7560 H   0  0  0  0  0  0  0  0  0  0  0  0
   -9.2254   -5.0175  -24.6030 H   0  0  0  0  0  0  0  0  0  0  0  0
   -8.9695   -5.0683  -22.1629 H   0  0  0  0  0  0  0  0  0  0  0  0
   -7.1940   -5.1496  -22.3158 H   0  0  0  0  0  0  0  0  0  0  0  0
   -6.8398   -2.5185  -22.0515 C   0  0  0  0  0  0  0  0  0  0  0  0
   -5.6795   -2.8164  -22.2217 O   0  0  0  0  0  0  0  0  0  0  0  0
   -7.3392   -1.5163  -21.2081 N   0  0  0  0  0  0  0  0  0  0  0  0
   -6.5832   -0.8582  -20.1892 C   0  0  0  0  0  0  0  0  0  0  0  0
   -6.9070   -1.0591  -18.8692 C   0  0  0  0  0  0  0  0  0  0  0  0
   -6.2089   -0.5415  -17.8319 N   0  0  0  0  0  0  0  0  0  0  0  0
   -5.1741    0.2086  -18.1005 C   0  0  0  0  0  0  0  0  0  0  0  0
   -4.7428    0.5259  -19.4149 C   0  0  0  0  0  0  0  0  0  0  0  0
   -3.6133    1.3582  -19.6404 C   0  0  0  0  0  0  0  0  0  0  0  0
   -3.2238    1.6610  -20.9142 C   0  0  0  0  0  0  0  0  0  0  0  0
   -3.9548    1.1445  -22.0083 C   0  0  0  0  0  0  0  0  0  0  0  0
   -5.0481    0.3365  -21.8147 C   0  0  0  0  0  0  0  0  0  0  0  0
   -5.4683   -0.0109  -20.5012 C   0  0  0  0  0  0  0  0  0  0  0  0
   -5.5942   -0.0533  -22.6677 H   0  0  0  0  0  0  0  0  0  0  0  0
   -3.6482    1.3908  -23.0185 H   0  0  0  0  0  0  0  0  0  0  0  0
   -2.3675    2.3076  -21.0925 H   0  0  0  0  0  0  0  0  0  0  0  0
   -3.0813    1.7530  -18.7798 H   0  0  0  0  0  0  0  0  0  0  0  0
   -4.6252    0.6093  -17.2498 H   0  0  0  0  0  0  0  0  0  0  0  0
   -7.7532   -1.6829  -18.5940 H   0  0  0  0  0  0  0  0  0  0  0  0
  -10.1002   -2.6013  -22.3692 H   0  0  0  0  0  0  0  0  0  0  0  0
  1  2  2  0
  2  3  1  0
  4  3  1  6
  4  5  1  0
  5  6  1  0
  6  7  1  0
  7  8  2  0
  8  9  1  0
  9 10  2  0
 10 11  1  0
 11 12  2  0
 12 13  1  0
 11 14  1  0
 10 15  1  0
  9 16  1  0
  8 17  1  0
  6 18  1  0
 18 19  1  0
 18 20  1  0
  6 21  1  1
  5 22  1  0
  5 23  1  0
  4 24  1  0
 24 25  2  0
 24 26  1  0
 26 27  1  0
 27 28  2  0
 28 29  1  0
 29 30  2  0
 30 31  1  0
 31 32  2  0
 32 33  1  0
 33 34  2  0
 34 35  1  0
 35 36  2  0
 35 37  1  0
 34 38  1  0
 33 39  1  0
 32 40  1  0
 30 41  1  0
 28 42  1  0
  3 43  1  0
 26  2  1  0
 36 27  1  0
 18  4  1  0
 36 31  1  0
 12  7  1  0
M  END
>  <cnnaffinities>  (72) 
[5.87089]

>  <score>  (72) 
5.87089

>  <index>  (72) 
74

>  <Smiles>  (72) 
O=C1N([C@]2(C([C@](c3c(c(c(c(c3Cl)[H])[H])[H])[H])(C2([H])[H])[H])([H])[H])C(=O)N1c1c(nc(c2c(c(c(c(c12)[H])[H])[H])[H])[H])[H])[H]

>  <h>  (72) 
<NA>

>  <Training>  (72) 
True

>  <Success>  (72) 
True

>  <enamine_searched>  (72) 
False

>  <enamine_id>  (72) 
nan

$$$$

     RDKit          3D

 66 71  0  0  0  0  0  0  0  0999 V2000
   -7.4659    3.1436  -21.7950 C   0  0  0  0  0  0  0  0  0  0  0  0
   -8.5413    2.7527  -22.6874 N   0  0  0  0  0  0  0  0  0  0  0  0
   -8.1964    2.0349  -23.7876 C   0  0  0  0  0  0  0  0  0  0  0  0
   -7.0267    1.7931  -24.0549 O   0  0  0  0  0  0  0  0  0  0  0  0
   -9.3305    1.5099  -24.6655 C   0  0  0  0  0  0  0  0  0  0  0  0
   -9.8925    0.3054  -24.0761 N   0  0  0  0  0  0  0  0  0  0  0  0
   -9.0845   -0.9097  -24.0459 C   0  0  0  0  0  0  0  0  0  0  0  0
   -9.2901   -1.6994  -22.7256 C   0  0  2  0  0  0  0  0  0  0  0  0
   -8.6744   -0.8733  -21.5547 C   0  0  0  0  0  0  0  0  0  0  0  0
   -9.1561    0.1079  -21.0244 O   0  0  0  0  0  0  0  0  0  0  0  0
   -7.4497   -1.4144  -21.2252 N   0  0  0  0  0  0  0  0  0  0  0  0
   -6.6328   -0.8372  -20.2103 C   0  0  0  0  0  0  0  0  0  0  0  0
   -6.9405   -1.0537  -18.8886 C   0  0  0  0  0  0  0  0  0  0  0  0
   -6.2310   -0.5647  -17.8452 N   0  0  0  0  0  0  0  0  0  0  0  0
   -5.1882    0.1808  -18.1086 C   0  0  0  0  0  0  0  0  0  0  0  0
   -4.7551    0.4968  -19.4254 C   0  0  0  0  0  0  0  0  0  0  0  0
   -3.6359    1.3400  -19.6539 C   0  0  0  0  0  0  0  0  0  0  0  0
   -3.2476    1.6447  -20.9299 C   0  0  0  0  0  0  0  0  0  0  0  0
   -3.9636    1.1235  -22.0278 C   0  0  0  0  0  0  0  0  0  0  0  0
   -5.0597    0.3116  -21.8325 C   0  0  0  0  0  0  0  0  0  0  0  0
   -5.4864   -0.0317  -20.5200 C   0  0  0  0  0  0  0  0  0  0  0  0
   -5.6360   -0.0181  -22.6912 H   0  0  0  0  0  0  0  0  0  0  0  0
   -3.6576    1.3757  -23.0385 H   0  0  0  0  0  0  0  0  0  0  0  0
   -2.3961    2.2965  -21.1033 H   0  0  0  0  0  0  0  0  0  0  0  0
   -3.1076    1.7405  -18.7933 H   0  0  0  0  0  0  0  0  0  0  0  0
   -4.6257    0.5802  -17.2623 H   0  0  0  0  0  0  0  0  0  0  0  0
   -7.8052   -1.6609  -18.6327 H   0  0  0  0  0  0  0  0  0  0  0  0
   -7.1055   -2.5878  -22.0105 C   0  0  0  0  0  0  0  0  0  0  0  0
   -8.4371   -3.0021  -22.6646 C   0  0  2  0  0  0  0  0  0  0  0  0
   -8.2139   -3.8129  -23.9506 C   0  0  0  0  0  0  0  0  0  0  0  0
   -9.4248   -4.4614  -24.4066 N   0  0  0  0  0  0  0  0  0  0  0  0
   -9.4888   -5.3503  -25.4516 C   0  0  0  0  0  0  0  0  0  0  0  0
   -8.3368   -5.9015  -26.0772 C   0  0  0  0  0  0  0  0  0  0  0  0
   -8.4155   -6.7703  -27.0725 N   0  0  0  0  0  0  0  0  0  0  0  0
   -9.6439   -7.1286  -27.4606 C   0  0  0  0  0  0  0  0  0  0  0  0
  -10.7647   -6.6092  -26.8323 C   0  0  0  0  0  0  0  0  0  0  0  0
  -10.7147   -5.7032  -25.8543 N   0  0  0  0  0  0  0  0  0  0  0  0
  -11.7476   -6.9008  -27.1581 H   0  0  0  0  0  0  0  0  0  0  0  0
   -9.7031   -7.8555  -28.2606 H   0  0  0  0  0  0  0  0  0  0  0  0
   -7.3312   -5.6191  -25.7644 H   0  0  0  0  0  0  0  0  0  0  0  0
  -10.3147   -4.0257  -24.2049 H   0  0  0  0  0  0  0  0  0  0  0  0
   -7.4770   -4.5956  -23.7302 H   0  0  0  0  0  0  0  0  0  0  0  0
   -7.7799   -3.1758  -24.7387 H   0  0  0  0  0  0  0  0  0  0  0  0
   -8.9316   -3.6700  -21.9552 H   0  0  0  0  0  0  0  0  0  0  0  0
   -6.3408   -2.3545  -22.7681 H   0  0  0  0  0  0  0  0  0  0  0  0
   -6.7095   -3.3845  -21.3710 H   0  0  0  0  0  0  0  0  0  0  0  0
  -10.7914   -1.8828  -22.5267 C   0  0  0  0  0  0  0  0  0  0  0  0
  -11.3228   -2.9210  -21.7480 C   0  0  0  0  0  0  0  0  0  0  0  0
  -12.6739   -2.9430  -21.4368 C   0  0  0  0  0  0  0  0  0  0  0  0
  -13.3050   -4.1257  -20.3343 Cl  0  0  0  0  0  0  0  0  0  0  0  0
  -13.5586   -1.9881  -21.9260 C   0  0  0  0  0  0  0  0  0  0  0  0
  -13.0529   -0.9746  -22.7086 C   0  0  0  0  0  0  0  0  0  0  0  0
  -11.6909   -0.9136  -23.0015 C   0  0  0  0  0  0  0  0  0  0  0  0
  -11.2298    0.2747  -23.7911 C   0  0  0  0  0  0  0  0  0  0  0  0
  -12.0009    1.1594  -24.1312 O   0  0  0  0  0  0  0  0  0  0  0  0
  -13.6920   -0.1836  -23.0810 H   0  0  0  0  0  0  0  0  0  0  0  0
  -14.6078   -2.0362  -21.6565 H   0  0  0  0  0  0  0  0  0  0  0  0
  -10.6967   -3.6995  -21.3285 H   0  0  0  0  0  0  0  0  0  0  0  0
   -8.0333   -0.6273  -24.1608 H   0  0  0  0  0  0  0  0  0  0  0  0
   -9.3595   -1.5502  -24.8964 H   0  0  0  0  0  0  0  0  0  0  0  0
  -10.1386    2.2386  -24.7821 H   0  0  0  0  0  0  0  0  0  0  0  0
   -8.9200    1.2952  -25.6598 H   0  0  0  0  0  0  0  0  0  0  0  0
   -9.4701    2.6806  -22.2929 H   0  0  0  0  0  0  0  0  0  0  0  0
   -7.8982    3.5279  -20.8789 H   0  0  0  0  0  0  0  0  0  0  0  0
   -6.8376    2.2781  -21.5626 H   0  0  0  0  0  0  0  0  0  0  0  0
   -6.8468    3.9215  -22.2502 H   0  0  0  0  0  0  0  0  0  0  0  0
  1  2  1  0
  2  3  1  0
  3  4  2  0
  3  5  1  0
  5  6  1  0
  6  7  1  0
  8  7  1  6
  8  9  1  0
  9 10  2  0
  9 11  1  0
 11 12  1  0
 12 13  2  0
 13 14  1  0
 14 15  2  0
 15 16  1  0
 16 17  2  0
 17 18  1  0
 18 19  2  0
 19 20  1  0
 20 21  2  0
 20 22  1  0
 19 23  1  0
 18 24  1  0
 17 25  1  0
 15 26  1  0
 13 27  1  0
 11 28  1  0
 28 29  1  0
 29 30  1  0
 30 31  1  0
 31 32  1  0
 32 33  2  0
 33 34  1  0
 34 35  2  0
 35 36  1  0
 36 37  2  0
 36 38  1  0
 35 39  1  0
 33 40  1  0
 31 41  1  0
 30 42  1  0
 30 43  1  0
 29 44  1  1
 28 45  1  0
 28 46  1  0
  8 47  1  0
 47 48  2  0
 48 49  1  0
 49 50  1  0
 49 51  2  0
 51 52  1  0
 52 53  2  0
 53 54  1  0
 54 55  2  0
 52 56  1  0
 51 57  1  0
 48 58  1  0
  7 59  1  0
  7 60  1  0
  5 61  1  0
  5 62  1  0
  2 63  1  0
  1 64  1  0
  1 65  1  0
  1 66  1  0
 54  6  1  0
 29  8  1  0
 37 32  1  0
 53 47  1  0
 21 12  1  0
 21 16  1  0
M  END
>  <cnnaffinities>  (73) 
[6.42203]

>  <score>  (73) 
6.42203

>  <index>  (73) 
75

>  <Smiles>  (73) 
C(N(C(=O)C(N1C([C@@]2(C(=O)N(c3c(nc(c4c(c(c(c(c34)[H])[H])[H])[H])[H])[H])C([C@@]2(C(N(c2c(nc(c(n2)[H])[H])[H])[H])([H])[H])[H])([H])[H])c2c(c(Cl)c(c(c2C1=O)[H])[H])[H])([H])[H])([H])[H])[H])([H])([H])[H]

>  <h>  (73) 
<NA>

>  <Training>  (73) 
True

>  <Success>  (73) 
True

>  <enamine_searched>  (73) 
False

>  <enamine_id>  (73) 
nan

$$$$

     RDKit          3D

 66 71  0  0  0  0  0  0  0  0999 V2000
   -8.2468   -3.4630  -24.0347 C   0  0  0  0  0  0  0  0  0  0  0  0
   -8.4657   -2.7112  -22.7301 C   0  0  1  0  0  0  0  0  0  0  0  0
   -7.1607   -2.4712  -21.9489 C   0  0  0  0  0  0  0  0  0  0  0  0
   -7.4724   -1.2899  -21.1751 N   0  0  0  0  0  0  0  0  0  0  0  0
   -6.6402   -0.7548  -20.1611 C   0  0  0  0  0  0  0  0  0  0  0  0
   -6.9363   -0.9947  -18.8427 C   0  0  0  0  0  0  0  0  0  0  0  0
   -6.2055   -0.5232  -17.8071 N   0  0  0  0  0  0  0  0  0  0  0  0
   -5.1683    0.2253  -18.0840 C   0  0  0  0  0  0  0  0  0  0  0  0
   -4.7487    0.5521  -19.4056 C   0  0  0  0  0  0  0  0  0  0  0  0
   -3.6312    1.3921  -19.6542 C   0  0  0  0  0  0  0  0  0  0  0  0
   -3.2465    1.6739  -20.9365 C   0  0  0  0  0  0  0  0  0  0  0  0
   -3.9622    1.1328  -22.0276 C   0  0  0  0  0  0  0  0  0  0  0  0
   -5.0590    0.3271  -21.8137 C   0  0  0  0  0  0  0  0  0  0  0  0
   -5.4887    0.0251  -20.4901 C   0  0  0  0  0  0  0  0  0  0  0  0
   -5.6027   -0.0734  -22.6651 H   0  0  0  0  0  0  0  0  0  0  0  0
   -3.6536    1.3628  -23.0423 H   0  0  0  0  0  0  0  0  0  0  0  0
   -2.3955    2.3237  -21.1227 H   0  0  0  0  0  0  0  0  0  0  0  0
   -3.1010    1.8001  -18.7990 H   0  0  0  0  0  0  0  0  0  0  0  0
   -4.5953    0.6149  -17.2418 H   0  0  0  0  0  0  0  0  0  0  0  0
   -7.8012   -1.6010  -18.5825 H   0  0  0  0  0  0  0  0  0  0  0  0
   -8.5641   -0.5946  -21.6333 C   0  0  0  0  0  0  0  0  0  0  0  0
   -8.9936    0.4229  -21.1205 O   0  0  0  0  0  0  0  0  0  0  0  0
   -9.1532   -1.3157  -22.8626 C   0  0  1  0  0  0  0  0  0  0  0  0
   -8.7226   -0.6126  -24.1838 C   0  0  0  0  0  0  0  0  0  0  0  0
   -9.3837    0.6618  -24.4141 N   0  0  0  0  0  0  0  0  0  0  0  0
   -8.6542    1.7007  -25.1310 C   0  0  0  0  0  0  0  0  0  0  0  0
   -7.6919    2.3853  -24.1714 C   0  0  0  0  0  0  0  0  0  0  0  0
   -8.4386    3.0674  -23.0469 N   0  0  0  0  0  4  0  0  0  0  0  0
   -7.6647    3.0021  -21.7624 C   0  0  0  0  0  0  0  0  0  0  0  0
   -6.4193    3.8339  -21.8811 C   0  0  0  0  0  0  0  0  0  0  0  0
   -6.7803    5.1962  -22.0112 O   0  0  0  0  0  0  0  0  0  0  0  0
   -7.5127    5.4196  -23.2018 C   0  0  0  0  0  0  0  0  0  0  0  0
   -8.7513    4.5258  -23.3163 C   0  0  0  0  0  0  0  0  0  0  0  0
   -9.5063    4.8491  -22.5971 H   0  0  0  0  0  0  0  0  0  0  0  0
   -9.1643    4.6145  -24.3207 H   0  0  0  0  0  0  0  0  0  0  0  0
   -6.8696    5.2649  -24.0813 H   0  0  0  0  0  0  0  0  0  0  0  0
   -7.8101    6.4746  -23.2015 H   0  0  0  0  0  0  0  0  0  0  0  0
   -5.7995    3.6868  -21.0058 H   0  0  0  0  0  0  0  0  0  0  0  0
   -5.8311    3.5143  -22.7484 H   0  0  0  0  0  0  0  0  0  0  0  0
   -7.4363    1.9677  -21.5381 H   0  0  0  0  0  0  0  0  0  0  0  0
   -8.2598    3.4171  -20.9536 H   0  0  0  0  0  0  0  0  0  0  0  0
   -9.3335    2.5749  -22.9007 H   0  0  0  0  0  0  0  0  0  0  0  0
   -7.0550    1.6209  -23.7085 H   0  0  0  0  0  0  0  0  0  0  0  0
   -7.0482    3.1005  -24.6900 H   0  0  0  0  0  0  0  0  0  0  0  0
   -8.0956    1.2825  -25.9787 H   0  0  0  0  0  0  0  0  0  0  0  0
   -9.3841    2.4116  -25.5231 H   0  0  0  0  0  0  0  0  0  0  0  0
  -10.7183    0.8259  -24.1929 C   0  0  0  0  0  0  0  0  0  0  0  0
  -11.3314    1.8178  -24.5772 O   0  0  0  0  0  0  0  0  0  0  0  0
  -11.3956   -0.2527  -23.3979 C   0  0  0  0  0  0  0  0  0  0  0  0
  -12.7811   -0.1716  -23.2658 C   0  0  0  0  0  0  0  0  0  0  0  0
  -13.4781   -1.1093  -22.5289 C   0  0  0  0  0  0  0  0  0  0  0  0
  -12.7632   -2.1316  -21.9050 C   0  0  0  0  0  0  0  0  0  0  0  0
  -13.6096   -3.3156  -20.9397 Cl  0  0  0  0  0  0  0  0  0  0  0  0
  -11.3860   -2.2225  -22.0191 C   0  0  0  0  0  0  0  0  0  0  0  0
  -10.6719   -1.2931  -22.7897 C   0  0  0  0  0  0  0  0  0  0  0  0
  -10.8857   -3.0233  -21.4862 H   0  0  0  0  0  0  0  0  0  0  0  0
  -14.5571   -1.0553  -22.4272 H   0  0  0  0  0  0  0  0  0  0  0  0
  -13.3022    0.6458  -23.7545 H   0  0  0  0  0  0  0  0  0  0  0  0
   -7.6383   -0.4552  -24.1646 H   0  0  0  0  0  0  0  0  0  0  0  0
   -8.9505   -1.2732  -25.0301 H   0  0  0  0  0  0  0  0  0  0  0  0
   -6.8962   -3.3172  -21.3027 H   0  0  0  0  0  0  0  0  0  0  0  0
   -6.3039   -2.3092  -22.6209 H   0  0  0  0  0  0  0  0  0  0  0  0
   -9.0925   -3.3227  -22.0771 H   0  0  0  0  0  0  0  0  0  0  0  0
   -9.1843   -3.5603  -24.5924 H   0  0  0  0  0  0  0  0  0  0  0  0
   -7.5293   -2.9346  -24.6733 H   0  0  0  0  0  0  0  0  0  0  0  0
   -7.8418   -4.4634  -23.8539 H   0  0  0  0  0  0  0  0  0  0  0  0
  1  2  1  0
  2  3  1  0
  3  4  1  0
  4  5  1  0
  5  6  2  0
  6  7  1  0
  7  8  2  0
  8  9  1  0
  9 10  2  0
 10 11  1  0
 11 12  2  0
 12 13  1  0
 13 14  2  0
 13 15  1  0
 12 16  1  0
 11 17  1  0
 10 18  1  0
  8 19  1  0
  6 20  1  0
  4 21  1  0
 21 22  2  0
 21 23  1  0
 23 24  1  6
 24 25  1  0
 25 26  1  0
 26 27  1  0
 27 28  1  0
 28 29  1  0
 29 30  1  0
 30 31  1  0
 31 32  1  0
 32 33  1  0
 33 34  1  0
 33 35  1  0
 32 36  1  0
 32 37  1  0
 30 38  1  0
 30 39  1  0
 29 40  1  0
 29 41  1  0
 28 42  1  0
 27 43  1  0
 27 44  1  0
 26 45  1  0
 26 46  1  0
 25 47  1  0
 47 48  2  0
 47 49  1  0
 49 50  2  0
 50 51  1  0
 51 52  2  0
 52 53  1  0
 52 54  1  0
 54 55  2  0
 54 56  1  0
 51 57  1  0
 50 58  1  0
 24 59  1  0
 24 60  1  0
  3 61  1  0
  3 62  1  0
  2 63  1  1
  1 64  1  0
  1 65  1  0
  1 66  1  0
 23  2  1  0
 33 28  1  0
 55 49  1  0
 14  5  1  0
 55 23  1  0
 14  9  1  0
M  CHG  1  28   1
M  END
>  <cnnaffinities>  (74) 
[6.67384, 6.53744, 6.57646]

>  <score>  (74) 
6.67384

>  <index>  (74) 
76

>  <Smiles>  (74) 
C([C@]1(C(N(c2c(nc(c3c(c(c(c(c23)[H])[H])[H])[H])[H])[H])C(=O)[C@]21C(N(C(C([N+]1(C(C(OC(C1([H])[H])([H])[H])([H])[H])([H])[H])[H])([H])[H])([H])[H])C(=O)c1c(c(c(Cl)c(c21)[H])[H])[H])([H])[H])([H])[H])[H])([H])([H])[H]

>  <h>  (74) 
<NA>

>  <Training>  (74) 
True

>  <Success>  (74) 
True

>  <enamine_searched>  (74) 
False

>  <enamine_id>  (74) 
nan

$$$$

     RDKit          3D

 55 60  0  0  0  0  0  0  0  0999 V2000
  -10.4283   -1.0774  -23.3609 C   0  0  0  0  0  0  0  0  0  0  0  0
   -8.9842   -1.4143  -22.9967 C   0  0  1  0  0  0  0  0  0  0  0  0
   -8.4020   -0.4915  -21.9087 C   0  0  0  0  0  0  0  0  0  0  0  0
   -7.3979   -1.3220  -21.2699 N   0  0  0  0  0  0  0  0  0  0  0  0
   -6.5825   -0.8443  -20.2138 C   0  0  0  0  0  0  0  0  0  0  0  0
   -6.8872   -1.1152  -18.9048 C   0  0  0  0  0  0  0  0  0  0  0  0
   -6.2148   -0.5870  -17.8509 N   0  0  0  0  0  0  0  0  0  0  0  0
   -5.2059    0.2088  -18.1038 C   0  0  0  0  0  0  0  0  0  0  0  0
   -4.7536    0.5335  -19.4152 C   0  0  0  0  0  0  0  0  0  0  0  0
   -3.6271    1.3644  -19.6509 C   0  0  0  0  0  0  0  0  0  0  0  0
   -3.2222    1.6275  -20.9313 C   0  0  0  0  0  0  0  0  0  0  0  0
   -3.9153    1.0716  -22.0321 C   0  0  0  0  0  0  0  0  0  0  0  0
   -5.0090    0.2656  -21.8298 C   0  0  0  0  0  0  0  0  0  0  0  0
   -5.4571   -0.0124  -20.5117 C   0  0  0  0  0  0  0  0  0  0  0  0
   -5.5365   -0.1808  -22.6687 H   0  0  0  0  0  0  0  0  0  0  0  0
   -3.5808    1.2762  -23.0449 H   0  0  0  0  0  0  0  0  0  0  0  0
   -2.3585    2.2604  -21.1132 H   0  0  0  0  0  0  0  0  0  0  0  0
   -3.0983    1.7742  -18.7941 H   0  0  0  0  0  0  0  0  0  0  0  0
   -4.6813    0.6337  -17.2473 H   0  0  0  0  0  0  0  0  0  0  0  0
   -7.7154   -1.7779  -18.6556 H   0  0  0  0  0  0  0  0  0  0  0  0
   -7.5702   -2.6684  -21.5033 C   0  0  0  0  0  0  0  0  0  0  0  0
   -6.8534   -3.5335  -21.0353 O   0  0  0  0  0  0  0  0  0  0  0  0
   -8.7582   -2.8715  -22.4512 C   0  0  1  0  0  0  0  0  0  0  0  0
   -9.9677   -3.3360  -21.5983 C   0  0  0  0  0  0  0  0  0  0  0  0
  -11.0861   -3.8205  -22.3944 N   0  0  0  0  0  0  0  0  0  0  0  0
  -12.4613   -3.7944  -21.9004 C   0  0  0  0  0  0  0  0  0  0  0  0
  -13.3120   -2.6861  -22.4335 C   0  0  0  0  0  0  0  0  0  0  0  0
  -13.9558   -2.6381  -23.6211 C   0  0  0  0  0  0  0  0  0  0  0  0
  -14.6939   -1.4891  -23.6590 O   0  0  0  0  0  0  0  0  0  0  0  0
  -14.4336   -0.8890  -22.4815 C   0  0  0  0  0  0  0  0  0  0  0  0
  -13.6170   -1.5345  -21.7160 N   0  0  0  0  0  0  0  0  0  0  0  0
  -14.9290    0.0550  -22.2800 H   0  0  0  0  0  0  0  0  0  0  0  0
  -14.0297   -3.2870  -24.4854 H   0  0  0  0  0  0  0  0  0  0  0  0
  -12.4740   -3.7750  -20.8083 H   0  0  0  0  0  0  0  0  0  0  0  0
  -12.9202   -4.7172  -22.2557 H   0  0  0  0  0  0  0  0  0  0  0  0
  -10.8966   -4.5464  -23.5394 C   0  0  0  0  0  0  0  0  0  0  0  0
  -11.8396   -5.0402  -24.1506 O   0  0  0  0  0  0  0  0  0  0  0  0
   -9.4888   -4.7205  -23.9962 C   0  0  0  0  0  0  0  0  0  0  0  0
   -9.2408   -5.7217  -24.9329 C   0  0  0  0  0  0  0  0  0  0  0  0
   -7.9670   -5.9115  -25.4377 C   0  0  0  0  0  0  0  0  0  0  0  0
   -6.9507   -5.0611  -25.0104 C   0  0  0  0  0  0  0  0  0  0  0  0
   -5.7098   -5.2184  -25.5082 F   0  0  0  0  0  0  0  0  0  0  0  0
   -7.1628   -4.0874  -24.0503 C   0  0  0  0  0  0  0  0  0  0  0  0
   -8.4516   -3.9153  -23.5114 C   0  0  0  0  0  0  0  0  0  0  0  0
   -6.3092   -3.5186  -23.6938 H   0  0  0  0  0  0  0  0  0  0  0  0
   -7.7474   -6.6992  -26.1485 H   0  0  0  0  0  0  0  0  0  0  0  0
  -10.0692   -6.3516  -25.2489 H   0  0  0  0  0  0  0  0  0  0  0  0
  -10.2761   -2.4909  -20.9746 H   0  0  0  0  0  0  0  0  0  0  0  0
   -9.6331   -4.1106  -20.9084 H   0  0  0  0  0  0  0  0  0  0  0  0
   -9.1772   -0.1786  -21.1900 H   0  0  0  0  0  0  0  0  0  0  0  0
   -7.9604    0.4280  -22.3113 H   0  0  0  0  0  0  0  0  0  0  0  0
   -8.3552   -1.3224  -23.8920 H   0  0  0  0  0  0  0  0  0  0  0  0
  -10.5189   -0.1108  -23.8604 H   0  0  0  0  0  0  0  0  0  0  0  0
  -10.8467   -1.8429  -24.0214 H   0  0  0  0  0  0  0  0  0  0  0  0
  -11.0665   -1.0294  -22.4727 H   0  0  0  0  0  0  0  0  0  0  0  0
  1  2  1  0
  2  3  1  0
  3  4  1  0
  4  5  1  0
  5  6  2  0
  6  7  1  0
  7  8  2  0
  8  9  1  0
  9 10  2  0
 10 11  1  0
 11 12  2  0
 12 13  1  0
 13 14  2  0
 13 15  1  0
 12 16  1  0
 11 17  1  0
 10 18  1  0
  8 19  1  0
  6 20  1  0
  4 21  1  0
 21 22  2  0
 21 23  1  0
 23 24  1  1
 24 25  1  0
 25 26  1  0
 26 27  1  0
 27 28  2  0
 28 29  1  0
 29 30  1  0
 30 31  2  0
 30 32  1  0
 28 33  1  0
 26 34  1  0
 26 35  1  0
 25 36  1  0
 36 37  2  0
 36 38  1  0
 38 39  2  0
 39 40  1  0
 40 41  2  0
 41 42  1  0
 41 43  1  0
 43 44  2  0
 43 45  1  0
 40 46  1  0
 39 47  1  0
 24 48  1  0
 24 49  1  0
  3 50  1  0
  3 51  1  0
  2 52  1  6
  1 53  1  0
  1 54  1  0
  1 55  1  0
 23  2  1  0
 31 27  1  0
 44 38  1  0
 14  5  1  0
 44 23  1  0
 14  9  1  0
M  END
>  <cnnaffinities>  (75) 
[6.77795]

>  <score>  (75) 
6.77795

>  <index>  (75) 
77

>  <Smiles>  (75) 
C([C@]1(C(N(c2c(nc(c3c(c(c(c(c23)[H])[H])[H])[H])[H])[H])C(=O)[C@]21C(N(C(c1c(oc(n1)[H])[H])([H])[H])C(=O)c1c(c(c(F)c(c21)[H])[H])[H])([H])[H])([H])[H])[H])([H])([H])[H]

>  <h>  (75) 
<NA>

>  <Training>  (75) 
True

>  <Success>  (75) 
True

>  <enamine_searched>  (75) 
False

>  <enamine_id>  (75) 
nan

$$$$

     RDKit          3D

 56 60  0  0  0  0  0  0  0  0999 V2000
  -14.4781   -1.5905  -23.7856 C   0  0  0  0  0  0  0  0  0  0  0  0
  -13.7173   -2.7343  -23.3334 N   0  0  0  0  0  0  0  0  0  0  0  0
  -13.2909   -2.7518  -22.0452 C   0  0  0  0  0  0  0  0  0  0  0  0
  -13.5832   -1.8787  -21.2431 O   0  0  0  0  0  0  0  0  0  0  0  0
  -12.4240   -3.9512  -21.7089 C   0  0  0  0  0  0  0  0  0  0  0  0
  -11.0909   -3.9025  -22.2785 N   0  0  0  0  0  0  0  0  0  0  0  0
   -9.9787   -3.3977  -21.4858 C   0  0  0  0  0  0  0  0  0  0  0  0
   -8.7815   -2.9273  -22.3480 C   0  0  2  0  0  0  0  0  0  0  0  0
   -7.5527   -2.7092  -21.4475 C   0  0  0  0  0  0  0  0  0  0  0  0
   -6.8111   -3.5613  -21.0120 O   0  0  0  0  0  0  0  0  0  0  0  0
   -7.3979   -1.3549  -21.2324 N   0  0  0  0  0  0  0  0  0  0  0  0
   -6.5790   -0.8527  -20.1932 C   0  0  0  0  0  0  0  0  0  0  0  0
   -6.8886   -1.0958  -18.8795 C   0  0  0  0  0  0  0  0  0  0  0  0
   -6.2128   -0.5634  -17.8314 N   0  0  0  0  0  0  0  0  0  0  0  0
   -5.1914    0.2106  -18.0937 C   0  0  0  0  0  0  0  0  0  0  0  0
   -4.7463    0.5191  -19.4103 C   0  0  0  0  0  0  0  0  0  0  0  0
   -3.6199    1.3449  -19.6472 C   0  0  0  0  0  0  0  0  0  0  0  0
   -3.2165    1.6117  -20.9252 C   0  0  0  0  0  0  0  0  0  0  0  0
   -3.9169    1.0650  -22.0233 C   0  0  0  0  0  0  0  0  0  0  0  0
   -5.0127    0.2623  -21.8219 C   0  0  0  0  0  0  0  0  0  0  0  0
   -5.4573   -0.0234  -20.5034 C   0  0  0  0  0  0  0  0  0  0  0  0
   -5.5345   -0.1682  -22.6714 H   0  0  0  0  0  0  0  0  0  0  0  0
   -3.5883    1.2839  -23.0341 H   0  0  0  0  0  0  0  0  0  0  0  0
   -2.3621    2.2564  -21.1046 H   0  0  0  0  0  0  0  0  0  0  0  0
   -3.0982    1.7581  -18.7893 H   0  0  0  0  0  0  0  0  0  0  0  0
   -4.6509    0.6357  -17.2458 H   0  0  0  0  0  0  0  0  0  0  0  0
   -7.7299   -1.7365  -18.6248 H   0  0  0  0  0  0  0  0  0  0  0  0
   -8.3888   -0.5360  -21.9052 C   0  0  0  0  0  0  0  0  0  0  0  0
   -9.0016   -1.4908  -22.9408 C   0  0  2  0  0  0  0  0  0  0  0  0
  -10.4464   -1.1512  -23.2803 C   0  0  0  0  0  0  0  0  0  0  0  0
  -11.0571   -1.1273  -22.3708 H   0  0  0  0  0  0  0  0  0  0  0  0
  -10.5287   -0.1792  -23.7739 H   0  0  0  0  0  0  0  0  0  0  0  0
  -10.8641   -1.9158  -23.9402 H   0  0  0  0  0  0  0  0  0  0  0  0
   -8.3919   -1.4455  -23.8550 H   0  0  0  0  0  0  0  0  0  0  0  0
   -7.9260    0.3413  -22.3711 H   0  0  0  0  0  0  0  0  0  0  0  0
   -9.1494   -0.1722  -21.1961 H   0  0  0  0  0  0  0  0  0  0  0  0
   -8.5015   -3.9734  -23.3960 C   0  0  0  0  0  0  0  0  0  0  0  0
   -7.2272   -4.0950  -23.9502 C   0  0  0  0  0  0  0  0  0  0  0  0
   -6.9919   -5.0278  -24.9410 C   0  0  0  0  0  0  0  0  0  0  0  0
   -5.4244   -5.0916  -25.6756 Cl  0  0  0  0  0  0  0  0  0  0  0  0
   -7.9897   -5.8844  -25.3973 C   0  0  0  0  0  0  0  0  0  0  0  0
   -9.2518   -5.7586  -24.8532 C   0  0  0  0  0  0  0  0  0  0  0  0
   -9.5183   -4.7909  -23.8888 C   0  0  0  0  0  0  0  0  0  0  0  0
  -10.9212   -4.5946  -23.4378 C   0  0  0  0  0  0  0  0  0  0  0  0
  -11.8867   -5.0137  -24.0771 O   0  0  0  0  0  0  0  0  0  0  0  0
  -10.0566   -6.4090  -25.1681 H   0  0  0  0  0  0  0  0  0  0  0  0
   -7.7767   -6.6091  -26.1765 H   0  0  0  0  0  0  0  0  0  0  0  0
   -6.4201   -3.4587  -23.6096 H   0  0  0  0  0  0  0  0  0  0  0  0
   -9.6606   -4.1934  -20.8094 H   0  0  0  0  0  0  0  0  0  0  0  0
  -10.3274   -2.5424  -20.8974 H   0  0  0  0  0  0  0  0  0  0  0  0
  -12.9128   -4.7936  -22.1995 H   0  0  0  0  0  0  0  0  0  0  0  0
  -12.3961   -4.1096  -20.6311 H   0  0  0  0  0  0  0  0  0  0  0  0
  -13.4850   -3.5047  -23.9504 H   0  0  0  0  0  0  0  0  0  0  0  0
  -13.8656   -0.6805  -23.7764 H   0  0  0  0  0  0  0  0  0  0  0  0
  -14.8368   -1.7527  -24.8022 H   0  0  0  0  0  0  0  0  0  0  0  0
  -15.3336   -1.4218  -23.1250 H   0  0  0  0  0  0  0  0  0  0  0  0
  1  2  1  0
  2  3  1  0
  3  4  2  0
  3  5  1  0
  5  6  1  0
  6  7  1  0
  8  7  1  1
  8  9  1  0
  9 10  2  0
  9 11  1  0
 11 12  1  0
 12 13  2  0
 13 14  1  0
 14 15  2  0
 15 16  1  0
 16 17  2  0
 17 18  1  0
 18 19  2  0
 19 20  1  0
 20 21  2  0
 20 22  1  0
 19 23  1  0
 18 24  1  0
 17 25  1  0
 15 26  1  0
 13 27  1  0
 11 28  1  0
 28 29  1  0
 29 30  1  0
 30 31  1  0
 30 32  1  0
 30 33  1  0
 29 34  1  6
 28 35  1  0
 28 36  1  0
  8 37  1  0
 37 38  2  0
 38 39  1  0
 39 40  1  0
 39 41  2  0
 41 42  1  0
 42 43  2  0
 43 44  1  0
 44 45  2  0
 42 46  1  0
 41 47  1  0
 38 48  1  0
  7 49  1  0
  7 50  1  0
  5 51  1  0
  5 52  1  0
  2 53  1  0
  1 54  1  0
  1 55  1  0
  1 56  1  0
 44  6  1  0
 29  8  1  0
 43 37  1  0
 21 12  1  0
 21 16  1  0
M  END
>  <cnnaffinities>  (76) 
[6.60877, 6.45224]

>  <score>  (76) 
6.60877

>  <index>  (76) 
78

>  <Smiles>  (76) 
C(N(C(=O)C(N1C([C@@]2(C(=O)N(c3c(nc(c4c(c(c(c(c34)[H])[H])[H])[H])[H])[H])C([C@@]2(C([H])([H])[H])[H])([H])[H])c2c(c(Cl)c(c(c2C1=O)[H])[H])[H])([H])[H])([H])[H])[H])([H])([H])[H]

>  <h>  (76) 
<NA>

>  <Training>  (76) 
True

>  <Success>  (76) 
True

>  <enamine_searched>  (76) 
False

>  <enamine_id>  (76) 
nan

$$$$

     RDKit          3D

 45 49  0  0  0  0  0  0  0  0999 V2000
   -7.6297   -4.1915  -23.7472 C   0  0  0  0  0  0  0  0  0  0  0  0
   -7.7738   -3.0023  -22.9319 N   0  0  0  0  0  0  0  0  0  0  0  0
   -6.7712   -2.6011  -22.0806 C   0  0  0  0  0  0  0  0  0  0  0  0
   -5.6526   -3.0517  -21.9861 O   0  0  0  0  0  0  0  0  0  0  0  0
   -7.3082   -1.5552  -21.3090 N   0  0  0  0  0  0  0  0  0  0  0  0
   -6.5896   -0.9103  -20.2696 C   0  0  0  0  0  0  0  0  0  0  0  0
   -6.9613   -1.0957  -18.9623 C   0  0  0  0  0  0  0  0  0  0  0  0
   -6.2959   -0.5778  -17.9022 N   0  0  0  0  0  0  0  0  0  0  0  0
   -5.2462    0.1624  -18.1475 C   0  0  0  0  0  0  0  0  0  0  0  0
   -4.7739    0.4600  -19.4563 C   0  0  0  0  0  0  0  0  0  0  0  0
   -3.6534    1.3064  -19.6632 C   0  0  0  0  0  0  0  0  0  0  0  0
   -3.2604    1.6259  -20.9326 C   0  0  0  0  0  0  0  0  0  0  0  0
   -3.9629    1.1123  -22.0475 C   0  0  0  0  0  0  0  0  0  0  0  0
   -5.0440    0.2815  -21.8744 C   0  0  0  0  0  0  0  0  0  0  0  0
   -5.4679   -0.0752  -20.5625 C   0  0  0  0  0  0  0  0  0  0  0  0
   -5.5894   -0.0974  -22.7351 H   0  0  0  0  0  0  0  0  0  0  0  0
   -3.6565    1.3889  -23.0517 H   0  0  0  0  0  0  0  0  0  0  0  0
   -2.4189    2.2947  -21.0935 H   0  0  0  0  0  0  0  0  0  0  0  0
   -3.1489    1.7088  -18.7883 H   0  0  0  0  0  0  0  0  0  0  0  0
   -4.7165    0.5826  -17.2905 H   0  0  0  0  0  0  0  0  0  0  0  0
   -7.8328   -1.7001  -18.7284 H   0  0  0  0  0  0  0  0  0  0  0  0
   -8.6529   -1.3356  -21.5862 C   0  0  0  0  0  0  0  0  0  0  0  0
   -9.3433   -0.4665  -21.1010 O   0  0  0  0  0  0  0  0  0  0  0  0
   -9.0489   -2.4066  -22.5855 C   0  0  0  0  0  0  0  0  0  0  0  0
  -10.0173   -1.9723  -23.7077 C   0  0  0  0  0  0  0  0  0  0  0  0
  -11.0536   -2.8792  -23.1696 N   0  0  0  0  0  0  0  0  0  0  0  0
  -11.8954   -4.0703  -23.9832 S   0  0  0  0  0  0  0  0  0  0  0  0
  -10.9791   -4.9451  -24.6999 O   0  0  0  0  0  0  0  0  0  0  0  0
  -12.8123   -4.6193  -23.0001 O   0  0  0  0  0  0  0  0  0  0  0  0
  -12.9225   -3.2010  -25.1330 C   0  0  0  0  0  0  0  0  0  0  0  0
  -14.1390   -3.9870  -25.5519 C   0  0  0  0  0  0  0  0  0  0  0  0
  -14.2865   -2.8363  -24.6139 C   0  0  0  0  0  0  0  0  0  0  0  0
  -14.4778   -3.0608  -23.5690 H   0  0  0  0  0  0  0  0  0  0  0  0
  -14.7421   -1.9318  -24.9952 H   0  0  0  0  0  0  0  0  0  0  0  0
  -14.2649   -4.9781  -25.1300 H   0  0  0  0  0  0  0  0  0  0  0  0
  -14.5028   -3.8631  -26.5669 H   0  0  0  0  0  0  0  0  0  0  0  0
  -12.4237   -2.5856  -25.8757 H   0  0  0  0  0  0  0  0  0  0  0  0
  -10.1692   -3.3525  -22.0898 C   0  0  0  0  0  0  0  0  0  0  0  0
   -9.8889   -4.4091  -22.1207 H   0  0  0  0  0  0  0  0  0  0  0  0
  -10.5669   -3.0947  -21.1178 H   0  0  0  0  0  0  0  0  0  0  0  0
   -9.6894   -2.1616  -24.7283 H   0  0  0  0  0  0  0  0  0  0  0  0
  -10.3468   -0.9386  -23.5988 H   0  0  0  0  0  0  0  0  0  0  0  0
   -8.0831   -4.0559  -24.7329 H   0  0  0  0  0  0  0  0  0  0  0  0
   -8.0734   -5.0818  -23.2849 H   0  0  0  0  0  0  0  0  0  0  0  0
   -6.5611   -4.3753  -23.8623 H   0  0  0  0  0  0  0  0  0  0  0  0
  1  2  1  0
  2  3  1  0
  3  4  2  0
  3  5  1  0
  5  6  1  0
  6  7  2  0
  7  8  1  0
  8  9  2  0
  9 10  1  0
 10 11  2  0
 11 12  1  0
 12 13  2  0
 13 14  1  0
 14 15  2  0
 14 16  1  0
 13 17  1  0
 12 18  1  0
 11 19  1  0
  9 20  1  0
  7 21  1  0
  5 22  1  0
 22 23  2  0
 22 24  1  0
 24 25  1  0
 25 26  1  0
 26 27  1  0
 27 28  2  0
 27 29  2  0
 27 30  1  0
 30 31  1  0
 31 32  1  0
 32 33  1  0
 32 34  1  0
 31 35  1  0
 31 36  1  0
 30 37  1  0
 26 38  1  0
 38 39  1  0
 38 40  1  0
 25 41  1  0
 25 42  1  0
  1 43  1  0
  1 44  1  0
  1 45  1  0
 24  2  1  0
 32 30  1  0
 15  6  1  0
 38 24  1  0
 15 10  1  0
M  END
>  <cnnaffinities>  (77) 
[5.90453, 5.97752, 5.89372, 5.9767, 5.94423]

>  <score>  (77) 
5.90453

>  <index>  (77) 
79

>  <Smiles>  (77) 
C(N1C(=O)N(c2c(nc(c3c(c(c(c(c23)[H])[H])[H])[H])[H])[H])C(=O)C21C(N(S(=O)(=O)C1(C(C1([H])[H])([H])[H])[H])C2([H])[H])([H])[H])([H])([H])[H]

>  <h>  (77) 
<NA>

>  <Training>  (77) 
True

>  <Success>  (77) 
True

>  <enamine_searched>  (77) 
False

>  <enamine_id>  (77) 
nan

$$$$

     RDKit          3D

 60 65  0  0  0  0  0  0  0  0999 V2000
   -8.4900    2.2004  -28.9513 C   0  0  0  0  0  0  0  0  0  0  0  0
   -8.7275    2.2363  -27.5125 N   0  0  0  0  0  0  0  0  0  0  0  0
   -7.9107    1.5384  -26.6792 C   0  0  0  0  0  0  0  0  0  0  0  0
   -6.9228    0.9403  -27.0901 O   0  0  0  0  0  0  0  0  0  0  0  0
   -8.2722    1.5931  -25.1917 C   0  0  0  0  0  0  0  0  0  0  0  0
   -9.0371    0.4966  -24.6563 N   0  0  0  0  0  0  0  0  0  0  0  0
   -8.3816   -0.7705  -24.3828 C   0  0  0  0  0  0  0  0  0  0  0  0
   -8.8882   -1.4249  -23.0689 C   0  0  2  0  0  0  0  0  0  0  0  0
   -8.3664   -0.6339  -21.8439 C   0  0  0  0  0  0  0  0  0  0  0  0
   -8.7077    0.4781  -21.4845 O   0  0  0  0  0  0  0  0  0  0  0  0
   -7.4132   -1.3852  -21.1954 N   0  0  0  0  0  0  0  0  0  0  0  0
   -6.6046   -0.8130  -20.1733 C   0  0  0  0  0  0  0  0  0  0  0  0
   -6.9029   -1.0483  -18.8587 C   0  0  0  0  0  0  0  0  0  0  0  0
   -6.1935   -0.5505  -17.8168 N   0  0  0  0  0  0  0  0  0  0  0  0
   -5.1639    0.2086  -18.0867 C   0  0  0  0  0  0  0  0  0  0  0  0
   -4.7326    0.5308  -19.4038 C   0  0  0  0  0  0  0  0  0  0  0  0
   -3.6031    1.3602  -19.6446 C   0  0  0  0  0  0  0  0  0  0  0  0
   -3.2078    1.6433  -20.9221 C   0  0  0  0  0  0  0  0  0  0  0  0
   -3.9196    1.0978  -22.0152 C   0  0  0  0  0  0  0  0  0  0  0  0
   -5.0092    0.2870  -21.8068 C   0  0  0  0  0  0  0  0  0  0  0  0
   -5.4643   -0.0042  -20.4898 C   0  0  0  0  0  0  0  0  0  0  0  0
   -5.5326   -0.1352  -22.6605 H   0  0  0  0  0  0  0  0  0  0  0  0
   -3.6163    1.3303  -23.0321 H   0  0  0  0  0  0  0  0  0  0  0  0
   -2.3566    2.2954  -21.1022 H   0  0  0  0  0  0  0  0  0  0  0  0
   -3.0769    1.7685  -18.7847 H   0  0  0  0  0  0  0  0  0  0  0  0
   -4.6174    0.6138  -17.2336 H   0  0  0  0  0  0  0  0  0  0  0  0
   -7.7520   -1.6724  -18.5886 H   0  0  0  0  0  0  0  0  0  0  0  0
   -7.1015   -2.6408  -21.8475 C   0  0  0  0  0  0  0  0  0  0  0  0
   -8.2656   -2.8483  -22.8400 C   0  0  2  0  0  0  0  0  0  0  0  0
   -7.8280   -3.6347  -24.0824 C   0  0  0  0  0  0  0  0  0  0  0  0
   -8.6471   -3.7744  -24.7968 H   0  0  0  0  0  0  0  0  0  0  0  0
   -7.0120   -3.1218  -24.6060 H   0  0  0  0  0  0  0  0  0  0  0  0
   -7.4591   -4.6284  -23.8035 H   0  0  0  0  0  0  0  0  0  0  0  0
   -9.0395   -3.4255  -22.3302 H   0  0  0  0  0  0  0  0  0  0  0  0
   -7.0190   -3.4439  -21.1047 H   0  0  0  0  0  0  0  0  0  0  0  0
   -6.1378   -2.5875  -22.3783 H   0  0  0  0  0  0  0  0  0  0  0  0
  -10.4101   -1.3806  -23.0711 C   0  0  0  0  0  0  0  0  0  0  0  0
  -11.1298   -2.1659  -22.1570 C   0  0  0  0  0  0  0  0  0  0  0  0
  -12.5111   -2.1209  -22.1412 C   0  0  0  0  0  0  0  0  0  0  0  0
  -13.3927   -3.1112  -21.0140 Cl  0  0  0  0  0  0  0  0  0  0  0  0
  -13.2163   -1.2873  -23.0090 C   0  0  0  0  0  0  0  0  0  0  0  0
  -12.5128   -0.4565  -23.8596 C   0  0  0  0  0  0  0  0  0  0  0  0
  -11.1172   -0.4672  -23.8717 C   0  0  0  0  0  0  0  0  0  0  0  0
  -10.4062    0.5781  -24.6777 C   0  0  0  0  0  0  0  0  0  0  0  0
  -10.9831    1.4830  -25.2705 O   0  0  0  0  0  0  0  0  0  0  0  0
  -13.0140    0.2479  -24.5146 H   0  0  0  0  0  0  0  0  0  0  0  0
  -14.2994   -1.2802  -22.9818 H   0  0  0  0  0  0  0  0  0  0  0  0
  -10.6336   -2.7978  -21.4273 H   0  0  0  0  0  0  0  0  0  0  0  0
   -8.5703   -1.4656  -25.2147 H   0  0  0  0  0  0  0  0  0  0  0  0
   -7.3130   -0.5645  -24.3178 H   0  0  0  0  0  0  0  0  0  0  0  0
   -8.4358    2.9435  -24.5489 C   0  0  0  0  0  0  0  0  0  0  0  0
   -7.1857    2.1466  -24.3051 C   0  0  0  0  0  0  0  0  0  0  0  0
   -6.2604    2.4382  -24.7983 H   0  0  0  0  0  0  0  0  0  0  0  0
   -7.0764    1.6663  -23.3356 H   0  0  0  0  0  0  0  0  0  0  0  0
   -8.4017    3.8249  -25.1864 H   0  0  0  0  0  0  0  0  0  0  0  0
   -9.1551    3.0150  -23.7378 H   0  0  0  0  0  0  0  0  0  0  0  0
   -9.5992    2.5870  -27.1349 H   0  0  0  0  0  0  0  0  0  0  0  0
   -9.2776    2.7719  -29.4504 H   0  0  0  0  0  0  0  0  0  0  0  0
   -8.4845    1.1713  -29.3351 H   0  0  0  0  0  0  0  0  0  0  0  0
   -7.5138    2.6361  -29.2037 H   0  0  0  0  0  0  0  0  0  0  0  0
  1  2  1  0
  2  3  1  0
  3  4  2  0
  3  5  1  0
  5  6  1  0
  6  7  1  0
  8  7  1  6
  8  9  1  0
  9 10  2  0
  9 11  1  0
 11 12  1  0
 12 13  2  0
 13 14  1  0
 14 15  2  0
 15 16  1  0
 16 17  2  0
 17 18  1  0
 18 19  2  0
 19 20  1  0
 20 21  2  0
 20 22  1  0
 19 23  1  0
 18 24  1  0
 17 25  1  0
 15 26  1  0
 13 27  1  0
 11 28  1  0
 28 29  1  0
 29 30  1  0
 30 31  1  0
 30 32  1  0
 30 33  1  0
 29 34  1  1
 28 35  1  0
 28 36  1  0
  8 37  1  0
 37 38  2  0
 38 39  1  0
 39 40  1  0
 39 41  2  0
 41 42  1  0
 42 43  2  0
 43 44  1  0
 44 45  2  0
 42 46  1  0
 41 47  1  0
 38 48  1  0
  7 49  1  0
  7 50  1  0
  5 51  1  0
 51 52  1  0
 52 53  1  0
 52 54  1  0
 51 55  1  0
 51 56  1  0
  2 57  1  0
  1 58  1  0
  1 59  1  0
  1 60  1  0
 52  5  1  0
 44  6  1  0
 29  8  1  0
 43 37  1  0
 21 12  1  0
 21 16  1  0
M  END
>  <cnnaffinities>  (78) 
[6.64876, 5.91266]

>  <score>  (78) 
6.64876

>  <index>  (78) 
80

>  <Smiles>  (78) 
C(N(C(=O)C1(N2C([C@@]3(C(=O)N(c4c(nc(c5c(c(c(c(c45)[H])[H])[H])[H])[H])[H])C([C@@]3(C([H])([H])[H])[H])([H])[H])c3c(c(Cl)c(c(c3C2=O)[H])[H])[H])([H])[H])C(C1([H])[H])([H])[H])[H])([H])([H])[H]

>  <h>  (78) 
<NA>

>  <Training>  (78) 
True

>  <Success>  (78) 
True

>  <enamine_searched>  (78) 
False

>  <enamine_id>  (78) 
nan

$$$$

     RDKit          3D

 36 38  0  0  0  0  0  0  0  0999 V2000
   -8.5041    0.7117  -21.4639 O   0  0  0  0  0  0  0  0  0  0  0  0
   -8.3856   -0.4018  -21.9332 C   0  0  0  0  0  0  0  0  0  0  0  0
   -7.4387   -1.4331  -21.2757 C   0  0  0  0  0  0  0  0  0  0  0  0
   -6.5818   -0.8280  -20.1851 C   0  0  0  0  0  0  0  0  0  0  0  0
   -6.8783   -1.0388  -18.8632 C   0  0  0  0  0  0  0  0  0  0  0  0
   -6.1887   -0.5332  -17.8065 N   0  0  0  0  0  0  0  0  0  0  0  0
   -5.1538    0.2232  -18.0680 C   0  0  0  0  0  0  0  0  0  0  0  0
   -4.7225    0.5363  -19.3840 C   0  0  0  0  0  0  0  0  0  0  0  0
   -3.5969    1.3667  -19.6225 C   0  0  0  0  0  0  0  0  0  0  0  0
   -3.2084    1.6591  -20.9023 C   0  0  0  0  0  0  0  0  0  0  0  0
   -3.9332    1.1301  -21.9934 C   0  0  0  0  0  0  0  0  0  0  0  0
   -5.0266    0.3233  -21.7871 C   0  0  0  0  0  0  0  0  0  0  0  0
   -5.4545    0.0018  -20.4733 C   0  0  0  0  0  0  0  0  0  0  0  0
   -5.5738   -0.0683  -22.6378 H   0  0  0  0  0  0  0  0  0  0  0  0
   -3.6242    1.3682  -23.0060 H   0  0  0  0  0  0  0  0  0  0  0  0
   -2.3532    2.3034  -21.0876 H   0  0  0  0  0  0  0  0  0  0  0  0
   -3.0567    1.7742  -18.7714 H   0  0  0  0  0  0  0  0  0  0  0  0
   -4.6014    0.6265  -17.2166 H   0  0  0  0  0  0  0  0  0  0  0  0
   -7.7276   -1.6587  -18.5826 H   0  0  0  0  0  0  0  0  0  0  0  0
   -6.8022   -1.8991  -22.0403 H   0  0  0  0  0  0  0  0  0  0  0  0
   -8.0410   -2.2450  -20.8444 H   0  0  0  0  0  0  0  0  0  0  0  0
   -9.0625   -0.7714  -23.0884 N   0  0  0  0  0  0  0  0  0  0  0  0
  -10.0071    0.1955  -23.6428 C   0  0  0  0  0  0  0  0  0  0  0  0
  -11.3815    0.2145  -23.0226 C   0  0  0  0  0  0  0  0  0  0  0  0
  -12.0236   -0.7939  -22.4232 C   0  0  0  0  0  0  0  0  0  0  0  0
  -11.5707   -2.1756  -22.1570 C   0  0  0  0  0  0  0  0  0  0  0  0
  -10.4466   -2.7806  -22.5511 C   0  0  0  0  0  0  0  0  0  0  0  0
   -9.3684   -2.1602  -23.4050 C   0  0  0  0  0  0  0  0  0  0  0  0
   -8.4505   -2.7531  -23.3604 H   0  0  0  0  0  0  0  0  0  0  0  0
   -9.6853   -2.1766  -24.4546 H   0  0  0  0  0  0  0  0  0  0  0  0
  -10.2826   -3.8151  -22.2466 H   0  0  0  0  0  0  0  0  0  0  0  0
  -12.2760   -2.7639  -21.5732 H   0  0  0  0  0  0  0  0  0  0  0  0
  -13.0205   -0.5799  -22.0406 H   0  0  0  0  0  0  0  0  0  0  0  0
  -11.8929    1.1785  -23.0814 H   0  0  0  0  0  0  0  0  0  0  0  0
  -10.1140   -0.0415  -24.7083 H   0  0  0  0  0  0  0  0  0  0  0  0
   -9.5587    1.1913  -23.5960 H   0  0  0  0  0  0  0  0  0  0  0  0
  1  2  2  0
  2  3  1  0
  3  4  1  0
  4  5  2  0
  5  6  1  0
  6  7  2  0
  7  8  1  0
  8  9  2  0
  9 10  1  0
 10 11  2  0
 11 12  1  0
 12 13  2  0
 12 14  1  0
 11 15  1  0
 10 16  1  0
  9 17  1  0
  7 18  1  0
  5 19  1  0
  3 20  1  0
  3 21  1  0
  2 22  1  0
 22 23  1  0
 23 24  1  0
 24 25  2  0
 25 26  1  0
 26 27  2  0
 27 28  1  0
 28 29  1  0
 28 30  1  0
 27 31  1  0
 26 32  1  0
 25 33  1  0
 24 34  1  0
 23 35  1  0
 23 36  1  0
 13  4  1  0
 28 22  1  0
 13  8  1  0
M  END
>  <cnnaffinities>  (79) 
[4.38336, 4.38337, 5.07645, 5.17044, 5.1685]

>  <score>  (79) 
4.38336

>  <index>  (79) 
81

>  <Smiles>  (79) 
O=C(C(c1c(nc(c2c(c(c(c(c12)[H])[H])[H])[H])[H])[H])([H])[H])N1C(C(=C(C(=C(C1([H])[H])[H])[H])[H])[H])([H])[H]

>  <h>  (79) 
<NA>

>  <Training>  (79) 
True

>  <Success>  (79) 
True

>  <enamine_searched>  (79) 
False

>  <enamine_id>  (79) 
nan

$$$$

     RDKit          3D

 54 57  0  0  0  0  0  0  0  0999 V2000
  -10.6428    0.3417  -25.3656 C   0  0  0  0  0  0  0  0  0  0  0  0
   -9.7684   -0.5782  -24.7728 O   0  0  0  0  0  0  0  0  0  0  0  0
   -8.4672   -0.5228  -25.1660 C   0  0  0  0  0  0  0  0  0  0  0  0
   -7.9480    0.4960  -25.9695 C   0  0  0  0  0  0  0  0  0  0  0  0
   -6.5825    0.5284  -26.2396 C   0  0  0  0  0  0  0  0  0  0  0  0
   -5.7560   -0.4594  -25.7255 C   0  0  0  0  0  0  0  0  0  0  0  0
   -6.2967   -1.4834  -24.9468 C   0  0  0  0  0  0  0  0  0  0  0  0
   -7.6539   -1.5564  -24.6705 C   0  0  0  0  0  0  0  0  0  0  0  0
   -8.2993   -2.6691  -23.8364 C   0  0  1  0  0  0  0  0  0  0  0  0
   -9.1459   -3.6465  -24.6879 C   0  0  0  0  0  0  0  0  0  0  0  0
   -8.4065   -4.8569  -25.2719 C   0  0  1  0  0  0  0  0  0  0  0  0
   -7.4994   -4.5290  -26.4634 C   0  0  0  0  0  0  0  0  0  0  0  0
   -6.6726   -3.8687  -26.1823 H   0  0  0  0  0  0  0  0  0  0  0  0
   -7.0710   -5.4459  -26.8876 H   0  0  0  0  0  0  0  0  0  0  0  0
   -8.0618   -4.0216  -27.2555 H   0  0  0  0  0  0  0  0  0  0  0  0
   -7.6729   -5.5522  -24.1222 C   0  0  0  0  0  0  0  0  0  0  0  0
   -6.7116   -4.6108  -23.4054 C   0  0  0  0  0  0  0  0  0  0  0  0
   -7.3558   -3.3711  -22.9600 N   0  0  0  0  0  0  0  0  0  0  0  0
   -6.7446   -2.7500  -21.8852 C   0  0  0  0  0  0  0  0  0  0  0  0
   -5.7333   -3.2128  -21.3875 O   0  0  0  0  0  0  0  0  0  0  0  0
   -7.3975   -1.4806  -21.2896 C   0  0  0  0  0  0  0  0  0  0  0  0
   -6.5720   -0.8453  -20.1955 C   0  0  0  0  0  0  0  0  0  0  0  0
   -6.8726   -1.0569  -18.8742 C   0  0  0  0  0  0  0  0  0  0  0  0
   -6.1906   -0.5429  -17.8166 N   0  0  0  0  0  0  0  0  0  0  0  0
   -5.1586    0.2165  -18.0764 C   0  0  0  0  0  0  0  0  0  0  0  0
   -4.7188    0.5253  -19.3917 C   0  0  0  0  0  0  0  0  0  0  0  0
   -3.5936    1.3542  -19.6267 C   0  0  0  0  0  0  0  0  0  0  0  0
   -3.1946    1.6302  -20.9052 C   0  0  0  0  0  0  0  0  0  0  0  0
   -3.9053    1.0878  -21.9995 C   0  0  0  0  0  0  0  0  0  0  0  0
   -4.9997    0.2822  -21.7972 C   0  0  0  0  0  0  0  0  0  0  0  0
   -5.4399   -0.0208  -20.4821 C   0  0  0  0  0  0  0  0  0  0  0  0
   -5.5357   -0.1256  -22.6514 H   0  0  0  0  0  0  0  0  0  0  0  0
   -3.5885    1.3136  -23.0132 H   0  0  0  0  0  0  0  0  0  0  0  0
   -2.3390    2.2728  -21.0866 H   0  0  0  0  0  0  0  0  0  0  0  0
   -3.0669    1.7659  -18.7688 H   0  0  0  0  0  0  0  0  0  0  0  0
   -4.6128    0.6261  -17.2242 H   0  0  0  0  0  0  0  0  0  0  0  0
   -7.7240   -1.6763  -18.5936 H   0  0  0  0  0  0  0  0  0  0  0  0
   -7.6156   -0.7592  -22.0881 H   0  0  0  0  0  0  0  0  0  0  0  0
   -8.3714   -1.7816  -20.8779 H   0  0  0  0  0  0  0  0  0  0  0  0
   -6.3181   -5.0858  -22.5058 H   0  0  0  0  0  0  0  0  0  0  0  0
   -5.8413   -4.4001  -24.0483 H   0  0  0  0  0  0  0  0  0  0  0  0
   -8.4118   -5.9237  -23.3983 H   0  0  0  0  0  0  0  0  0  0  0  0
   -7.1105   -6.4200  -24.4980 H   0  0  0  0  0  0  0  0  0  0  0  0
   -9.1796   -5.5499  -25.6358 H   0  0  0  0  0  0  0  0  0  0  0  0
   -9.6220   -3.0734  -25.4922 H   0  0  0  0  0  0  0  0  0  0  0  0
   -9.9487   -4.0249  -24.0406 H   0  0  0  0  0  0  0  0  0  0  0  0
   -9.0241   -2.1679  -23.1843 H   0  0  0  0  0  0  0  0  0  0  0  0
   -5.6431   -2.2574  -24.5518 H   0  0  0  0  0  0  0  0  0  0  0  0
   -4.6887   -0.4547  -25.9200 H   0  0  0  0  0  0  0  0  0  0  0  0
   -6.1653    1.3353  -26.8394 H   0  0  0  0  0  0  0  0  0  0  0  0
   -8.5860    1.2775  -26.3673 H   0  0  0  0  0  0  0  0  0  0  0  0
  -11.6519    0.0420  -25.0785 H   0  0  0  0  0  0  0  0  0  0  0  0
  -10.5343    0.3215  -26.4587 H   0  0  0  0  0  0  0  0  0  0  0  0
  -10.4402    1.3566  -25.0013 H   0  0  0  0  0  0  0  0  0  0  0  0
  1  2  1  0
  2  3  1  0
  3  4  2  0
  4  5  1  0
  5  6  2  0
  6  7  1  0
  7  8  2  0
  8  9  1  0
  9 10  1  0
 10 11  1  0
 11 12  1  0
 12 13  1  0
 12 14  1  0
 12 15  1  0
 11 16  1  0
 16 17  1  0
 17 18  1  0
 18 19  1  0
 19 20  2  0
 19 21  1  0
 21 22  1  0
 22 23  2  0
 23 24  1  0
 24 25  2  0
 25 26  1  0
 26 27  2  0
 27 28  1  0
 28 29  2  0
 29 30  1  0
 30 31  2  0
 30 32  1  0
 29 33  1  0
 28 34  1  0
 27 35  1  0
 25 36  1  0
 23 37  1  0
 21 38  1  0
 21 39  1  0
 17 40  1  0
 17 41  1  0
 16 42  1  0
 16 43  1  0
 11 44  1  6
 10 45  1  0
 10 46  1  0
  9 47  1  1
  7 48  1  0
  6 49  1  0
  5 50  1  0
  4 51  1  0
  1 52  1  0
  1 53  1  0
  1 54  1  0
  8  3  1  0
 18  9  1  0
 31 22  1  0
 31 26  1  0
M  END
>  <cnnaffinities>  (80) 
[5.69206, 5.88104]

>  <score>  (80) 
5.69206

>  <index>  (80) 
82

>  <Smiles>  (80) 
C(Oc1c(c(c(c(c1[C@]1(C([C@@](C([H])([H])[H])(C(C(N1C(=O)C(c1c(nc(c2c(c(c(c(c12)[H])[H])[H])[H])[H])[H])([H])[H])([H])[H])([H])[H])[H])([H])[H])[H])[H])[H])[H])[H])([H])([H])[H]

>  <h>  (80) 
<NA>

>  <Training>  (80) 
True

>  <Success>  (80) 
True

>  <enamine_searched>  (80) 
False

>  <enamine_id>  (80) 
nan

$$$$

     RDKit          3D

 46 50  0  0  0  0  0  0  0  0999 V2000
   -4.5515   -0.7958  -25.3129 N   0  0  0  0  0  0  0  0  0  0  0  0
   -5.3028   -1.7584  -26.4544 S   0  0  0  0  0  0  0  0  0  0  0  0
   -5.1246   -1.1837  -27.7814 O   0  0  0  0  0  0  0  0  0  0  0  0
   -4.8910   -3.1211  -26.1572 O   0  0  0  0  0  0  0  0  0  0  0  0
   -6.9958   -1.5421  -26.0171 C   0  0  0  0  0  0  0  0  0  0  0  0
   -7.9366   -1.2087  -26.9867 C   0  0  0  0  0  0  0  0  0  0  0  0
   -9.2580   -1.0306  -26.6142 C   0  0  0  0  0  0  0  0  0  0  0  0
   -9.6291   -1.1886  -25.2768 C   0  0  0  0  0  0  0  0  0  0  0  0
   -8.6652   -1.4489  -24.2891 C   0  0  0  0  0  0  0  0  0  0  0  0
   -7.3587   -1.6970  -24.6900 C   0  0  0  0  0  0  0  0  0  0  0  0
   -6.6251   -2.0557  -23.9695 H   0  0  0  0  0  0  0  0  0  0  0  0
   -9.0084   -1.5492  -22.8066 C   0  0  1  0  0  0  0  0  0  0  0  0
  -10.5005   -1.2439  -22.6048 C   0  0  0  0  0  0  0  0  0  0  0  0
  -11.3096   -1.7879  -23.7723 C   0  0  0  0  0  0  0  0  0  0  0  0
  -10.9546   -1.1006  -24.9697 O   0  0  0  0  0  0  0  0  0  0  0  0
  -11.1342   -2.8698  -23.8986 H   0  0  0  0  0  0  0  0  0  0  0  0
  -12.3787   -1.6210  -23.6346 H   0  0  0  0  0  0  0  0  0  0  0  0
  -10.8025   -1.6473  -21.6334 H   0  0  0  0  0  0  0  0  0  0  0  0
  -10.6013   -0.1509  -22.5898 H   0  0  0  0  0  0  0  0  0  0  0  0
   -8.5735   -2.8355  -22.2514 N   0  0  0  0  0  0  0  0  0  0  0  0
   -7.4696   -2.7337  -21.4392 C   0  0  0  0  0  0  0  0  0  0  0  0
   -6.7558   -3.6171  -21.0154 O   0  0  0  0  0  0  0  0  0  0  0  0
   -7.2914   -1.3688  -21.1954 N   0  0  0  0  0  0  0  0  0  0  0  0
   -6.4631   -0.8231  -20.1798 C   0  0  0  0  0  0  0  0  0  0  0  0
   -6.8017   -1.0039  -18.8615 C   0  0  0  0  0  0  0  0  0  0  0  0
   -6.1334   -0.4575  -17.8193 N   0  0  0  0  0  0  0  0  0  0  0  0
   -5.0964    0.2900  -18.0951 C   0  0  0  0  0  0  0  0  0  0  0  0
   -4.6366    0.5575  -19.4160 C   0  0  0  0  0  0  0  0  0  0  0  0
   -3.5097    1.3909  -19.6443 C   0  0  0  0  0  0  0  0  0  0  0  0
   -3.0916    1.6472  -20.9207 C   0  0  0  0  0  0  0  0  0  0  0  0
   -3.7905    1.0940  -22.0187 C   0  0  0  0  0  0  0  0  0  0  0  0
   -4.8895    0.2914  -21.8318 C   0  0  0  0  0  0  0  0  0  0  0  0
   -5.3382   -0.0049  -20.5084 C   0  0  0  0  0  0  0  0  0  0  0  0
   -5.4191   -0.1081  -22.7002 H   0  0  0  0  0  0  0  0  0  0  0  0
   -3.4639    1.3172  -23.0305 H   0  0  0  0  0  0  0  0  0  0  0  0
   -2.2349    2.2937  -21.0898 H   0  0  0  0  0  0  0  0  0  0  0  0
   -3.0102    1.8326  -18.7847 H   0  0  0  0  0  0  0  0  0  0  0  0
   -4.5698    0.7349  -17.2493 H   0  0  0  0  0  0  0  0  0  0  0  0
   -7.6725   -1.5975  -18.5990 H   0  0  0  0  0  0  0  0  0  0  0  0
   -8.2038   -0.5997  -21.9106 C   0  0  0  0  0  0  0  0  0  0  0  0
   -8.3540    0.5882  -21.7608 O   0  0  0  0  0  0  0  0  0  0  0  0
   -8.6542   -3.6853  -22.7894 H   0  0  0  0  0  0  0  0  0  0  0  0
  -10.0176   -0.8034  -27.3516 H   0  0  0  0  0  0  0  0  0  0  0  0
   -7.6233   -1.1072  -28.0200 H   0  0  0  0  0  0  0  0  0  0  0  0
   -4.3582    0.1400  -25.6475 H   0  0  0  0  0  0  0  0  0  0  0  0
   -3.7140   -1.2512  -24.9665 H   0  0  0  0  0  0  0  0  0  0  0  0
  1  2  1  0
  2  3  2  0
  2  4  2  0
  2  5  1  0
  5  6  2  0
  6  7  1  0
  7  8  2  0
  8  9  1  0
  9 10  2  0
 10 11  1  0
  9 12  1  0
 12 13  1  0
 13 14  1  0
 14 15  1  0
 14 16  1  0
 14 17  1  0
 13 18  1  0
 13 19  1  0
 12 20  1  1
 20 21  1  0
 21 22  2  0
 21 23  1  0
 23 24  1  0
 24 25  2  0
 25 26  1  0
 26 27  2  0
 27 28  1  0
 28 29  2  0
 29 30  1  0
 30 31  2  0
 31 32  1  0
 32 33  2  0
 32 34  1  0
 31 35  1  0
 30 36  1  0
 29 37  1  0
 27 38  1  0
 25 39  1  0
 23 40  1  0
 40 41  2  0
 20 42  1  0
  7 43  1  0
  6 44  1  0
  1 45  1  0
  1 46  1  0
 10  5  1  0
 40 12  1  0
 15  8  1  0
 33 24  1  0
 33 28  1  0
M  END
>  <cnnaffinities>  (81) 
[5.5042, 5.49932]

>  <score>  (81) 
5.5042

>  <index>  (81) 
83

>  <Smiles>  (81) 
N(S(=O)(=O)c1c(c(c2c(c1[H])[C@@]1(C(C(O2)([H])[H])([H])[H])N(C(=O)N(c2c(nc(c3c(c(c(c(c23)[H])[H])[H])[H])[H])[H])C1=O)[H])[H])[H])([H])[H]

>  <h>  (81) 
<NA>

>  <Training>  (81) 
True

>  <Success>  (81) 
True

>  <enamine_searched>  (81) 
False

>  <enamine_id>  (81) 
nan

$$$$

     RDKit          3D

 63 68  0  0  0  0  0  0  0  0999 V2000
   -7.4539   -3.5267  -23.6082 C   0  0  0  0  0  0  0  0  0  0  0  0
   -8.4536   -2.9477  -22.5992 C   0  0  1  0  0  0  0  0  0  0  0  0
   -7.7993   -2.7575  -21.2179 C   0  0  0  0  0  0  0  0  0  0  0  0
   -7.3748   -1.3699  -21.2315 N   0  0  0  0  0  0  0  0  0  0  0  0
   -6.5660   -0.8096  -20.2112 C   0  0  0  0  0  0  0  0  0  0  0  0
   -6.8669   -1.0552  -18.8938 C   0  0  0  0  0  0  0  0  0  0  0  0
   -6.1937   -0.5424  -17.8381 N   0  0  0  0  0  0  0  0  0  0  0  0
   -5.1698    0.2311  -18.0911 C   0  0  0  0  0  0  0  0  0  0  0  0
   -4.7170    0.5388  -19.4037 C   0  0  0  0  0  0  0  0  0  0  0  0
   -3.5867    1.3734  -19.6062 C   0  0  0  0  0  0  0  0  0  0  0  0
   -3.1366    1.6329  -20.8711 C   0  0  0  0  0  0  0  0  0  0  0  0
   -3.7978    1.0670  -21.9831 C   0  0  0  0  0  0  0  0  0  0  0  0
   -4.9031    0.2675  -21.8124 C   0  0  0  0  0  0  0  0  0  0  0  0
   -5.4101   -0.0061  -20.5093 C   0  0  0  0  0  0  0  0  0  0  0  0
   -5.3934   -0.1581  -22.6818 H   0  0  0  0  0  0  0  0  0  0  0  0
   -3.4304    1.2693  -22.9850 H   0  0  0  0  0  0  0  0  0  0  0  0
   -2.2753    2.2770  -21.0265 H   0  0  0  0  0  0  0  0  0  0  0  0
   -3.0982    1.7981  -18.7337 H   0  0  0  0  0  0  0  0  0  0  0  0
   -4.6348    0.6491  -17.2382 H   0  0  0  0  0  0  0  0  0  0  0  0
   -7.7202   -1.6820  -18.6397 H   0  0  0  0  0  0  0  0  0  0  0  0
   -8.2387   -0.5985  -21.9941 C   0  0  0  0  0  0  0  0  0  0  0  0
   -8.3200    0.6066  -21.9318 O   0  0  0  0  0  0  0  0  0  0  0  0
   -9.0374   -1.5400  -22.9421 C   0  0  1  0  0  0  0  0  0  0  0  0
   -8.7497   -1.1038  -24.3986 C   0  0  0  0  0  0  0  0  0  0  0  0
   -9.3321    0.1870  -24.7192 N   0  0  0  0  0  0  0  0  0  0  0  0
   -8.6470    1.0401  -25.6686 C   0  0  0  0  0  0  0  0  0  0  0  0
   -8.8113    0.5403  -27.1171 C   0  0  0  0  0  0  0  0  0  0  0  0
   -9.8619    0.7135  -27.7134 O   0  0  0  0  0  0  0  0  0  0  0  0
   -7.7240   -0.0965  -27.6368 N   0  0  0  0  0  0  0  0  0  0  0  0
   -7.7986   -0.6092  -29.0499 C   0  0  0  0  0  0  0  0  0  0  0  0
   -7.4570   -2.0612  -29.2489 C   0  0  0  0  0  0  0  0  0  0  0  0
   -5.5405   -0.8333  -28.5831 F   0  0  0  0  0  0  0  0  0  0  0  0
   -7.1940   -2.9070  -28.2746 C   0  0  0  0  0  0  0  0  0  0  0  0
   -7.8205   -2.2038  -29.4406 C   0  0  0  0  0  0  0  0  0  0  0  0
   -8.8985   -2.5447  -29.6924 H   0  0  0  0  0  0  0  0  0  0  0  0
   -7.0702   -2.4313  -30.8382 H   0  0  0  0  0  0  0  0  0  0  0  0
   -8.0317   -3.1849  -27.6504 H   0  0  0  0  0  0  0  0  0  0  0  0
   -6.1356   -2.8881  -27.9492 H   0  0  0  0  0  0  0  0  0  0  0  0
   -8.8260   -0.2491  -29.3121 H   0  0  0  0  0  0  0  0  0  0  0  0
   -7.0348    0.0047  -29.5385 H   0  0  0  0  0  0  0  0  0  0  0  0
   -6.8181    0.1461  -27.2322 H   0  0  0  0  0  0  0  0  0  0  0  0
   -7.5878    1.1133  -25.3855 H   0  0  0  0  0  0  0  0  0  0  0  0
   -9.1152    2.0253  -25.5942 H   0  0  0  0  0  0  0  0  0  0  0  0
  -10.5869    0.5445  -24.3169 C   0  0  0  0  0  0  0  0  0  0  0  0
  -11.1327    1.5764  -24.6878 O   0  0  0  0  0  0  0  0  0  0  0  0
  -11.2638   -0.4121  -23.3875 C   0  0  0  0  0  0  0  0  0  0  0  0
  -12.6339   -0.2418  -23.1930 C   0  0  0  0  0  0  0  0  0  0  0  0
  -13.3408   -1.0984  -22.3740 C   0  0  0  0  0  0  0  0  0  0  0  0
  -12.6363   -2.1262  -21.7601 C   0  0  0  0  0  0  0  0  0  0  0  0
  -13.3128   -2.9750  -20.9638 F   0  0  0  0  0  0  0  0  0  0  0  0
  -11.2749   -2.3052  -21.9174 C   0  0  0  0  0  0  0  0  0  0  0  0
  -10.5495   -1.4330  -22.7433 C   0  0  0  0  0  0  0  0  0  0  0  0
  -10.8128   -3.1304  -21.3877 H   0  0  0  0  0  0  0  0  0  0  0  0
  -14.4052   -0.9866  -22.1945 H   0  0  0  0  0  0  0  0  0  0  0  0
  -13.1245    0.5755  -23.7070 H   0  0  0  0  0  0  0  0  0  0  0  0
   -9.1387   -1.8745  -25.0763 H   0  0  0  0  0  0  0  0  0  0  0  0
   -7.6716   -1.0157  -24.5282 H   0  0  0  0  0  0  0  0  0  0  0  0
   -6.9404   -3.4155  -21.0548 H   0  0  0  0  0  0  0  0  0  0  0  0
   -8.5369   -2.9348  -20.4203 H   0  0  0  0  0  0  0  0  0  0  0  0
   -9.2649   -3.6755  -22.5386 H   0  0  0  0  0  0  0  0  0  0  0  0
   -6.5978   -2.8639  -23.7724 H   0  0  0  0  0  0  0  0  0  0  0  0
   -7.9341   -3.7149  -24.5736 H   0  0  0  0  0  0  0  0  0  0  0  0
   -7.0646   -4.4861  -23.2492 H   0  0  0  0  0  0  0  0  0  0  0  0
  1  2  1  0
  2  3  1  0
  3  4  1  0
  4  5  1  0
  5  6  2  0
  6  7  1  0
  7  8  2  0
  8  9  1  0
  9 10  2  0
 10 11  1  0
 11 12  2  0
 12 13  1  0
 13 14  2  0
 13 15  1  0
 12 16  1  0
 11 17  1  0
 10 18  1  0
  8 19  1  0
  6 20  1  0
  4 21  1  0
 21 22  2  0
 21 23  1  0
 23 24  1  6
 24 25  1  0
 25 26  1  0
 26 27  1  0
 27 28  2  0
 27 29  1  0
 29 30  1  0
 30 31  1  0
 31 32  1  0
 31 33  1  0
 33 34  1  0
 34 35  1  0
 34 36  1  0
 33 37  1  0
 33 38  1  0
 30 39  1  0
 30 40  1  0
 29 41  1  0
 26 42  1  0
 26 43  1  0
 25 44  1  0
 44 45  2  0
 44 46  1  0
 46 47  2  0
 47 48  1  0
 48 49  2  0
 49 50  1  0
 49 51  1  0
 51 52  2  0
 51 53  1  0
 48 54  1  0
 47 55  1  0
 24 56  1  0
 24 57  1  0
  3 58  1  0
  3 59  1  0
  2 60  1  1
  1 61  1  0
  1 62  1  0
  1 63  1  0
 23  2  1  0
 34 31  1  0
 52 46  1  0
 14  5  1  0
 52 23  1  0
 14  9  1  0
M  END
>  <cnnaffinities>  (82) 
[5.92801]

>  <score>  (82) 
5.92801

>  <index>  (82) 
84

>  <Smiles>  (82) 
C([C@]1(C(N(c2c(nc(c3c(c(c(c(c23)[H])[H])[H])[H])[H])[H])C(=O)[C@]21C(N(C(C(=O)N(C(C1(F)C(C1([H])[H])([H])[H])([H])[H])[H])([H])[H])C(=O)c1c(c(c(F)c(c21)[H])[H])[H])([H])[H])([H])[H])[H])([H])([H])[H]

>  <h>  (82) 
<NA>

>  <Training>  (82) 
True

>  <Success>  (82) 
True

>  <enamine_searched>  (82) 
False

>  <enamine_id>  (82) 
nan

$$$$

     RDKit          3D

 57 62  0  0  0  0  0  0  0  0999 V2000
   -9.2828    1.0403  -29.3261 C   0  0  0  0  0  0  0  0  0  0  0  0
   -9.1678    1.3814  -27.9200 N   0  0  0  0  0  0  0  0  0  0  0  0
   -8.2904    0.7042  -27.1371 C   0  0  0  0  0  0  0  0  0  0  0  0
   -7.5158   -0.1331  -27.5734 O   0  0  0  0  0  0  0  0  0  0  0  0
   -8.3139    1.0744  -25.6511 C   0  0  0  0  0  0  0  0  0  0  0  0
   -9.1523    0.2026  -24.8569 N   0  0  0  0  0  0  0  0  0  0  0  0
   -8.6692   -1.1207  -24.5090 C   0  0  0  0  0  0  0  0  0  0  0  0
   -8.9656   -1.4875  -23.0350 C   0  0  2  0  0  0  0  0  0  0  0  0
   -8.1491   -0.5767  -22.0879 C   0  0  0  0  0  0  0  0  0  0  0  0
   -8.1531    0.6349  -22.0779 O   0  0  0  0  0  0  0  0  0  0  0  0
   -7.3817   -1.3538  -21.2449 N   0  0  0  0  0  0  0  0  0  0  0  0
   -6.5936   -0.8078  -20.1993 C   0  0  0  0  0  0  0  0  0  0  0  0
   -6.8928   -1.0599  -18.8817 C   0  0  0  0  0  0  0  0  0  0  0  0
   -6.2018   -0.5550  -17.8305 N   0  0  0  0  0  0  0  0  0  0  0  0
   -5.1711    0.2097  -18.0883 C   0  0  0  0  0  0  0  0  0  0  0  0
   -4.7276    0.5257  -19.4031 C   0  0  0  0  0  0  0  0  0  0  0  0
   -3.5956    1.3529  -19.6323 C   0  0  0  0  0  0  0  0  0  0  0  0
   -3.1804    1.6211  -20.9083 C   0  0  0  0  0  0  0  0  0  0  0  0
   -3.8704    1.0667  -22.0095 C   0  0  0  0  0  0  0  0  0  0  0  0
   -4.9649    0.2645  -21.8119 C   0  0  0  0  0  0  0  0  0  0  0  0
   -5.4412   -0.0070  -20.4981 C   0  0  0  0  0  0  0  0  0  0  0  0
   -5.4841   -0.1619  -22.6638 H   0  0  0  0  0  0  0  0  0  0  0  0
   -3.5412    1.2811  -23.0222 H   0  0  0  0  0  0  0  0  0  0  0  0
   -2.3250    2.2679  -21.0838 H   0  0  0  0  0  0  0  0  0  0  0  0
   -3.0774    1.7661  -18.7712 H   0  0  0  0  0  0  0  0  0  0  0  0
   -4.6251    0.6159  -17.2365 H   0  0  0  0  0  0  0  0  0  0  0  0
   -7.7517   -1.6775  -18.6179 H   0  0  0  0  0  0  0  0  0  0  0  0
   -7.6283   -2.7674  -21.3872 C   0  0  0  0  0  0  0  0  0  0  0  0
   -8.4798   -2.8945  -22.6457 C   0  0  0  0  0  0  0  0  0  0  0  0
   -9.3504   -4.1065  -22.8333 C   0  0  0  0  0  0  0  0  0  0  0  0
   -8.0962   -3.9561  -23.6467 C   0  0  0  0  0  0  0  0  0  0  0  0
   -7.2431   -4.5897  -23.4094 H   0  0  0  0  0  0  0  0  0  0  0  0
   -8.1861   -3.7367  -24.7071 H   0  0  0  0  0  0  0  0  0  0  0  0
   -9.3990   -4.8453  -22.0351 H   0  0  0  0  0  0  0  0  0  0  0  0
  -10.3071   -3.9620  -23.3301 H   0  0  0  0  0  0  0  0  0  0  0  0
   -6.6779   -3.3023  -21.4711 H   0  0  0  0  0  0  0  0  0  0  0  0
   -8.1806   -3.1396  -20.5232 H   0  0  0  0  0  0  0  0  0  0  0  0
  -10.4543   -1.2291  -22.8297 C   0  0  0  0  0  0  0  0  0  0  0  0
  -11.1636   -1.9416  -21.8639 C   0  0  0  0  0  0  0  0  0  0  0  0
  -12.5298   -1.7649  -21.7616 C   0  0  0  0  0  0  0  0  0  0  0  0
  -13.4316   -2.8672  -20.7535 Cl  0  0  0  0  0  0  0  0  0  0  0  0
  -13.1874   -0.7211  -22.4072 C   0  0  0  0  0  0  0  0  0  0  0  0
  -12.4774    0.0371  -23.3154 C   0  0  0  0  0  0  0  0  0  0  0  0
  -11.1351   -0.2410  -23.5560 C   0  0  0  0  0  0  0  0  0  0  0  0
  -10.4384    0.5729  -24.5970 C   0  0  0  0  0  0  0  0  0  0  0  0
  -10.9845    1.5141  -25.1642 O   0  0  0  0  0  0  0  0  0  0  0  0
  -12.9527    0.8528  -23.8500 H   0  0  0  0  0  0  0  0  0  0  0  0
  -14.2090   -0.4646  -22.1601 H   0  0  0  0  0  0  0  0  0  0  0  0
  -10.6489   -2.5875  -21.1602 H   0  0  0  0  0  0  0  0  0  0  0  0
   -7.5959   -1.1389  -24.6990 H   0  0  0  0  0  0  0  0  0  0  0  0
   -9.1554   -1.8641  -25.1538 H   0  0  0  0  0  0  0  0  0  0  0  0
   -8.6687    2.0964  -25.5060 H   0  0  0  0  0  0  0  0  0  0  0  0
   -7.2852    0.9882  -25.2836 H   0  0  0  0  0  0  0  0  0  0  0  0
   -9.8677    1.9589  -27.4756 H   0  0  0  0  0  0  0  0  0  0  0  0
   -9.5304   -0.0203  -29.4503 H   0  0  0  0  0  0  0  0  0  0  0  0
  -10.0605    1.6546  -29.7880 H   0  0  0  0  0  0  0  0  0  0  0  0
   -8.3312    1.2145  -29.8403 H   0  0  0  0  0  0  0  0  0  0  0  0
  1  2  1  0
  2  3  1  0
  3  4  2  0
  3  5  1  0
  5  6  1  0
  6  7  1  0
  8  7  1  6
  8  9  1  0
  9 10  2  0
  9 11  1  0
 11 12  1  0
 12 13  2  0
 13 14  1  0
 14 15  2  0
 15 16  1  0
 16 17  2  0
 17 18  1  0
 18 19  2  0
 19 20  1  0
 20 21  2  0
 20 22  1  0
 19 23  1  0
 18 24  1  0
 17 25  1  0
 15 26  1  0
 13 27  1  0
 11 28  1  0
 28 29  1  0
 29 30  1  0
 30 31  1  0
 31 32  1  0
 31 33  1  0
 30 34  1  0
 30 35  1  0
 28 36  1  0
 28 37  1  0
  8 38  1  0
 38 39  2  0
 39 40  1  0
 40 41  1  0
 40 42  2  0
 42 43  1  0
 43 44  2  0
 44 45  1  0
 45 46  2  0
 43 47  1  0
 42 48  1  0
 39 49  1  0
  7 50  1  0
  7 51  1  0
  5 52  1  0
  5 53  1  0
  2 54  1  0
  1 55  1  0
  1 56  1  0
  1 57  1  0
 45  6  1  0
 29  8  1  0
 44 38  1  0
 21 12  1  0
 31 29  1  0
 21 16  1  0
M  END
>  <cnnaffinities>  (83) 
[6.13085]

>  <score>  (83) 
6.13085

>  <index>  (83) 
85

>  <Smiles>  (83) 
C(N(C(=O)C(N1C([C@@]2(C(=O)N(c3c(nc(c4c(c(c(c(c34)[H])[H])[H])[H])[H])[H])C(C32C(C3([H])[H])([H])[H])([H])[H])c2c(c(Cl)c(c(c2C1=O)[H])[H])[H])([H])[H])([H])[H])[H])([H])([H])[H]

>  <h>  (83) 
<NA>

>  <Training>  (83) 
True

>  <Success>  (83) 
True

>  <enamine_searched>  (83) 
False

>  <enamine_id>  (83) 
nan

$$$$

     RDKit          3D

 43 45  0  0  0  0  0  0  0  0999 V2000
   -8.0637    0.6690  -26.8268 C   0  0  0  0  0  0  0  0  0  0  0  0
   -9.2917    0.3000  -25.9939 C   0  0  1  0  0  0  0  0  0  0  0  0
   -9.1816   -1.0848  -25.3639 C   0  0  0  0  0  0  0  0  0  0  0  0
   -8.2220   -1.1252  -24.1721 C   0  0  0  0  0  0  0  0  0  0  0  0
   -8.5856   -0.1323  -23.1710 N   0  0  0  0  0  0  0  0  0  0  0  0
   -8.4508   -0.3535  -21.8120 C   0  0  0  0  0  0  0  0  0  0  0  0
   -9.1116    0.2727  -20.9965 O   0  0  0  0  0  0  0  0  0  0  0  0
   -7.4393   -1.4017  -21.2800 C   0  0  0  0  0  0  0  0  0  0  0  0
   -6.5734   -0.8313  -20.1756 C   0  0  0  0  0  0  0  0  0  0  0  0
   -6.8773   -1.0408  -18.8528 C   0  0  0  0  0  0  0  0  0  0  0  0
   -6.1833   -0.5332  -17.7978 N   0  0  0  0  0  0  0  0  0  0  0  0
   -5.1526    0.2237  -18.0655 C   0  0  0  0  0  0  0  0  0  0  0  0
   -4.7175    0.5372  -19.3809 C   0  0  0  0  0  0  0  0  0  0  0  0
   -3.5966    1.3713  -19.6241 C   0  0  0  0  0  0  0  0  0  0  0  0
   -3.2073    1.6639  -20.9014 C   0  0  0  0  0  0  0  0  0  0  0  0
   -3.9310    1.1283  -21.9946 C   0  0  0  0  0  0  0  0  0  0  0  0
   -5.0183    0.3163  -21.7834 C   0  0  0  0  0  0  0  0  0  0  0  0
   -5.4486   -0.0037  -20.4700 C   0  0  0  0  0  0  0  0  0  0  0  0
   -5.5549   -0.0777  -22.6445 H   0  0  0  0  0  0  0  0  0  0  0  0
   -3.6192    1.3640  -23.0063 H   0  0  0  0  0  0  0  0  0  0  0  0
   -2.3559    2.3081  -21.0882 H   0  0  0  0  0  0  0  0  0  0  0  0
   -3.0573    1.7807  -18.7717 H   0  0  0  0  0  0  0  0  0  0  0  0
   -4.5993    0.6287  -17.2152 H   0  0  0  0  0  0  0  0  0  0  0  0
   -7.7284   -1.6593  -18.5813 H   0  0  0  0  0  0  0  0  0  0  0  0
   -6.8121   -1.8250  -22.0729 H   0  0  0  0  0  0  0  0  0  0  0  0
   -8.0307   -2.2249  -20.8584 H   0  0  0  0  0  0  0  0  0  0  0  0
   -8.7949    1.2583  -23.6202 C   0  0  1  0  0  0  0  0  0  0  0  0
   -7.4726    2.0341  -23.7181 C   0  0  0  0  0  0  0  0  0  0  0  0
   -7.6256    3.0166  -24.1762 H   0  0  0  0  0  0  0  0  0  0  0  0
   -6.7280    1.5035  -24.3158 H   0  0  0  0  0  0  0  0  0  0  0  0
   -7.0464    2.2010  -22.7234 H   0  0  0  0  0  0  0  0  0  0  0  0
   -9.6453    1.3117  -24.9015 C   0  0  0  0  0  0  0  0  0  0  0  0
  -10.6929    1.1672  -24.6171 H   0  0  0  0  0  0  0  0  0  0  0  0
   -9.5942    2.3253  -25.3174 H   0  0  0  0  0  0  0  0  0  0  0  0
   -9.3805    1.7396  -22.8369 H   0  0  0  0  0  0  0  0  0  0  0  0
   -7.1827   -1.0091  -24.5229 H   0  0  0  0  0  0  0  0  0  0  0  0
   -8.2853   -2.1109  -23.7152 H   0  0  0  0  0  0  0  0  0  0  0  0
   -8.8575   -1.8124  -26.1147 H   0  0  0  0  0  0  0  0  0  0  0  0
  -10.1681   -1.4145  -25.0261 H   0  0  0  0  0  0  0  0  0  0  0  0
  -10.1377    0.2786  -26.6917 H   0  0  0  0  0  0  0  0  0  0  0  0
   -7.1268    0.5589  -26.2762 H   0  0  0  0  0  0  0  0  0  0  0  0
   -8.1180    1.7040  -27.1727 H   0  0  0  0  0  0  0  0  0  0  0  0
   -7.9941    0.0263  -27.7098 H   0  0  0  0  0  0  0  0  0  0  0  0
  1  2  1  0
  2  3  1  0
  3  4  1  0
  4  5  1  0
  5  6  1  0
  6  7  2  0
  6  8  1  0
  8  9  1  0
  9 10  2  0
 10 11  1  0
 11 12  2  0
 12 13  1  0
 13 14  2  0
 14 15  1  0
 15 16  2  0
 16 17  1  0
 17 18  2  0
 17 19  1  0
 16 20  1  0
 15 21  1  0
 14 22  1  0
 12 23  1  0
 10 24  1  0
  8 25  1  0
  8 26  1  0
  5 27  1  0
 27 28  1  0
 28 29  1  0
 28 30  1  0
 28 31  1  0
 27 32  1  0
 32 33  1  0
 32 34  1  0
 27 35  1  1
  4 36  1  0
  4 37  1  0
  3 38  1  0
  3 39  1  0
  2 40  1  6
  1 41  1  0
  1 42  1  0
  1 43  1  0
 32  2  1  0
 18  9  1  0
 18 13  1  0
M  END
>  <cnnaffinities>  (84) 
[4.94757, 5.36968]

>  <score>  (84) 
4.94757

>  <index>  (84) 
86

>  <Smiles>  (84) 
C([C@]1(C(C(N(C(=O)C(c2c(nc(c3c(c(c(c(c23)[H])[H])[H])[H])[H])[H])([H])[H])[C@@](C([H])([H])[H])(C1([H])[H])[H])([H])[H])([H])[H])[H])([H])([H])[H]

>  <h>  (84) 
<NA>

>  <Training>  (84) 
True

>  <Success>  (84) 
True

>  <enamine_searched>  (84) 
False

>  <enamine_id>  (84) 
nan

$$$$

     RDKit          3D

 59 64  0  0  0  0  0  0  0  0999 V2000
   -7.9454   -3.6831  -24.0256 C   0  0  0  0  0  0  0  0  0  0  0  0
   -8.3347   -2.8443  -22.7999 C   0  0  1  0  0  0  0  0  0  0  0  0
   -7.1507   -2.6484  -21.8287 C   0  0  0  0  0  0  0  0  0  0  0  0
   -7.4261   -1.3731  -21.1936 N   0  0  0  0  0  0  0  0  0  0  0  0
   -6.6087   -0.8030  -20.1771 C   0  0  0  0  0  0  0  0  0  0  0  0
   -6.8991   -1.0460  -18.8608 C   0  0  0  0  0  0  0  0  0  0  0  0
   -6.1880   -0.5518  -17.8181 N   0  0  0  0  0  0  0  0  0  0  0  0
   -5.1601    0.2099  -18.0860 C   0  0  0  0  0  0  0  0  0  0  0  0
   -4.7321    0.5339  -19.4035 C   0  0  0  0  0  0  0  0  0  0  0  0
   -3.6013    1.3628  -19.6417 C   0  0  0  0  0  0  0  0  0  0  0  0
   -3.2093    1.6504  -20.9191 C   0  0  0  0  0  0  0  0  0  0  0  0
   -3.9266    1.1148  -22.0140 C   0  0  0  0  0  0  0  0  0  0  0  0
   -5.0218    0.3119  -21.8111 C   0  0  0  0  0  0  0  0  0  0  0  0
   -5.4681    0.0085  -20.4916 C   0  0  0  0  0  0  0  0  0  0  0  0
   -5.5598   -0.0941  -22.6645 H   0  0  0  0  0  0  0  0  0  0  0  0
   -3.6139    1.3500  -23.0276 H   0  0  0  0  0  0  0  0  0  0  0  0
   -2.3570    2.3012  -21.0985 H   0  0  0  0  0  0  0  0  0  0  0  0
   -3.0710    1.7678  -18.7828 H   0  0  0  0  0  0  0  0  0  0  0  0
   -4.6135    0.6140  -17.2319 H   0  0  0  0  0  0  0  0  0  0  0  0
   -7.7461   -1.6726  -18.5895 H   0  0  0  0  0  0  0  0  0  0  0  0
   -8.3541   -0.6078  -21.8612 C   0  0  0  0  0  0  0  0  0  0  0  0
   -8.6520    0.5286  -21.5373 O   0  0  0  0  0  0  0  0  0  0  0  0
   -8.8995   -1.4062  -23.0666 C   0  0  1  0  0  0  0  0  0  0  0  0
   -8.3328   -0.8025  -24.3770 C   0  0  0  0  0  0  0  0  0  0  0  0
   -8.8784    0.5116  -24.6482 N   0  0  0  0  0  0  0  0  0  0  0  0
   -7.9559    1.6185  -24.8521 C   0  0  0  0  0  0  0  0  0  0  0  0
   -6.9977    1.4109  -25.9855 C   0  0  0  0  0  0  0  0  0  0  0  0
   -5.6373    1.1704  -25.9810 C   0  0  0  0  0  0  0  0  0  0  0  0
   -5.3004    0.9759  -27.3343 C   0  0  0  0  0  0  0  0  0  0  0  0
   -6.3652    1.0974  -28.1171 N   0  0  0  0  0  0  0  0  0  0  0  0
   -7.3839    1.3673  -27.2860 N   0  0  0  0  0  0  0  0  0  0  0  0
   -8.7210    1.5337  -27.8160 C   0  0  0  0  0  0  0  0  0  0  0  0
   -9.1870    2.4371  -27.4048 H   0  0  0  0  0  0  0  0  0  0  0  0
   -8.6191    1.6227  -28.9010 H   0  0  0  0  0  0  0  0  0  0  0  0
   -9.3482    0.6680  -27.5702 H   0  0  0  0  0  0  0  0  0  0  0  0
   -4.3429    0.7347  -27.7849 H   0  0  0  0  0  0  0  0  0  0  0  0
   -5.0136    1.1126  -25.0971 H   0  0  0  0  0  0  0  0  0  0  0  0
   -8.5751    2.5090  -24.9957 H   0  0  0  0  0  0  0  0  0  0  0  0
   -7.3658    1.7551  -23.9337 H   0  0  0  0  0  0  0  0  0  0  0  0
  -10.2258    0.7184  -24.6540 C   0  0  0  0  0  0  0  0  0  0  0  0
  -10.7505    1.6839  -25.2042 O   0  0  0  0  0  0  0  0  0  0  0  0
  -11.0345   -0.3020  -23.9097 C   0  0  0  0  0  0  0  0  0  0  0  0
  -12.4247   -0.1852  -23.9526 C   0  0  0  0  0  0  0  0  0  0  0  0
  -13.2186   -0.9947  -23.1660 C   0  0  0  0  0  0  0  0  0  0  0  0
  -12.5927   -1.8981  -22.3153 C   0  0  0  0  0  0  0  0  0  0  0  0
  -13.3542   -2.6511  -21.5041 F   0  0  0  0  0  0  0  0  0  0  0  0
  -11.2209   -2.0469  -22.2649 C   0  0  0  0  0  0  0  0  0  0  0  0
  -10.4148   -1.2812  -23.1156 C   0  0  0  0  0  0  0  0  0  0  0  0
  -10.8127   -2.7387  -21.5367 H   0  0  0  0  0  0  0  0  0  0  0  0
  -14.3005   -0.9240  -23.1658 H   0  0  0  0  0  0  0  0  0  0  0  0
  -12.8480    0.5776  -24.5958 H   0  0  0  0  0  0  0  0  0  0  0  0
   -7.2483   -0.7025  -24.2888 H   0  0  0  0  0  0  0  0  0  0  0  0
   -8.5654   -1.4730  -25.2179 H   0  0  0  0  0  0  0  0  0  0  0  0
   -6.1926   -2.6327  -22.3734 H   0  0  0  0  0  0  0  0  0  0  0  0
   -7.0808   -3.4425  -21.0769 H   0  0  0  0  0  0  0  0  0  0  0  0
   -9.1191   -3.3804  -22.2598 H   0  0  0  0  0  0  0  0  0  0  0  0
   -8.7749   -3.7874  -24.7344 H   0  0  0  0  0  0  0  0  0  0  0  0
   -7.1033   -3.2329  -24.5665 H   0  0  0  0  0  0  0  0  0  0  0  0
   -7.6345   -4.6914  -23.7266 H   0  0  0  0  0  0  0  0  0  0  0  0
  1  2  1  0
  2  3  1  0
  3  4  1  0
  4  5  1  0
  5  6  2  0
  6  7  1  0
  7  8  2  0
  8  9  1  0
  9 10  2  0
 10 11  1  0
 11 12  2  0
 12 13  1  0
 13 14  2  0
 13 15  1  0
 12 16  1  0
 11 17  1  0
 10 18  1  0
  8 19  1  0
  6 20  1  0
  4 21  1  0
 21 22  2  0
 21 23  1  0
 23 24  1  6
 24 25  1  0
 25 26  1  0
 26 27  1  0
 27 28  2  0
 28 29  1  0
 29 30  2  0
 30 31  1  0
 31 32  1  0
 32 33  1  0
 32 34  1  0
 32 35  1  0
 29 36  1  0
 28 37  1  0
 26 38  1  0
 26 39  1  0
 25 40  1  0
 40 41  2  0
 40 42  1  0
 42 43  2  0
 43 44  1  0
 44 45  2  0
 45 46  1  0
 45 47  1  0
 47 48  2  0
 47 49  1  0
 44 50  1  0
 43 51  1  0
 24 52  1  0
 24 53  1  0
  3 54  1  0
  3 55  1  0
  2 56  1  1
  1 57  1  0
  1 58  1  0
  1 59  1  0
 23  2  1  0
 31 27  1  0
 48 42  1  0
 14  5  1  0
 48 23  1  0
 14  9  1  0
M  END
>  <cnnaffinities>  (85) 
[6.63234, 6.73562]

>  <score>  (85) 
6.63234

>  <index>  (85) 
87

>  <Smiles>  (85) 
C([C@]1(C(N(c2c(nc(c3c(c(c(c(c23)[H])[H])[H])[H])[H])[H])C(=O)[C@]21C(N(C(c1c(c(nn1C([H])([H])[H])[H])[H])([H])[H])C(=O)c1c(c(c(F)c(c21)[H])[H])[H])([H])[H])([H])[H])[H])([H])([H])[H]

>  <h>  (85) 
<NA>

>  <Training>  (85) 
True

>  <Success>  (85) 
True

>  <enamine_searched>  (85) 
False

>  <enamine_id>  (85) 
nan

$$$$

     RDKit          3D

 40 42  0  0  0  0  0  0  0  0999 V2000
   -5.5910   -2.9756  -21.6793 O   0  0  0  0  0  0  0  0  0  0  0  0
   -6.7930   -2.7999  -21.7760 C   0  0  0  0  0  0  0  0  0  0  0  0
   -7.4232   -1.4828  -21.2553 C   0  0  0  0  0  0  0  0  0  0  0  0
   -6.5822   -0.8245  -20.1816 C   0  0  0  0  0  0  0  0  0  0  0  0
   -6.8723   -1.0415  -18.8597 C   0  0  0  0  0  0  0  0  0  0  0  0
   -6.1826   -0.5387  -17.8044 N   0  0  0  0  0  0  0  0  0  0  0  0
   -5.1536    0.2250  -18.0670 C   0  0  0  0  0  0  0  0  0  0  0  0
   -4.7185    0.5340  -19.3835 C   0  0  0  0  0  0  0  0  0  0  0  0
   -3.5899    1.3608  -19.6205 C   0  0  0  0  0  0  0  0  0  0  0  0
   -3.1878    1.6352  -20.8995 C   0  0  0  0  0  0  0  0  0  0  0  0
   -3.8992    1.0904  -21.9911 C   0  0  0  0  0  0  0  0  0  0  0  0
   -4.9963    0.2895  -21.7855 C   0  0  0  0  0  0  0  0  0  0  0  0
   -5.4439   -0.0091  -20.4731 C   0  0  0  0  0  0  0  0  0  0  0  0
   -5.5152   -0.1385  -22.6366 H   0  0  0  0  0  0  0  0  0  0  0  0
   -3.5740    1.3075  -23.0041 H   0  0  0  0  0  0  0  0  0  0  0  0
   -2.3271    2.2728  -21.0844 H   0  0  0  0  0  0  0  0  0  0  0  0
   -3.0538    1.7743  -18.7690 H   0  0  0  0  0  0  0  0  0  0  0  0
   -4.6006    0.6281  -17.2162 H   0  0  0  0  0  0  0  0  0  0  0  0
   -7.7181   -1.6691  -18.5827 H   0  0  0  0  0  0  0  0  0  0  0  0
   -8.4252   -1.6856  -20.8468 H   0  0  0  0  0  0  0  0  0  0  0  0
   -7.5640   -0.7902  -22.0957 H   0  0  0  0  0  0  0  0  0  0  0  0
   -7.6216   -3.7654  -22.3131 N   0  0  0  0  0  0  0  0  0  0  0  0
   -7.2605   -5.1760  -22.1568 C   0  0  0  0  0  0  0  0  0  0  0  0
   -7.5497   -6.0018  -23.3997 C   0  0  0  0  0  0  0  0  0  0  0  0
   -8.9916   -5.8085  -23.8489 C   0  0  0  0  0  0  0  0  0  0  0  0
   -9.3363   -6.6232  -25.0802 C   0  0  0  0  0  0  0  0  0  0  0  0
   -8.5078   -6.2815  -26.1093 F   0  0  0  0  0  0  0  0  0  0  0  0
   -9.1506   -7.9573  -24.8517 F   0  0  0  0  0  0  0  0  0  0  0  0
  -10.3699   -6.4863  -25.4276 H   0  0  0  0  0  0  0  0  0  0  0  0
   -9.2777   -4.3296  -24.0582 C   0  0  0  0  0  0  0  0  0  0  0  0
   -8.9717   -3.5177  -22.8032 C   0  0  0  0  0  0  0  0  0  0  0  0
   -9.7205   -3.7516  -22.0323 H   0  0  0  0  0  0  0  0  0  0  0  0
   -9.0775   -2.4583  -23.0372 H   0  0  0  0  0  0  0  0  0  0  0  0
   -8.6826   -3.9641  -24.8981 H   0  0  0  0  0  0  0  0  0  0  0  0
  -10.3268   -4.1838  -24.3397 H   0  0  0  0  0  0  0  0  0  0  0  0
   -9.6477   -6.1796  -23.0642 H   0  0  0  0  0  0  0  0  0  0  0  0
   -6.8746   -5.7052  -24.2026 H   0  0  0  0  0  0  0  0  0  0  0  0
   -7.3561   -7.0613  -23.1963 H   0  0  0  0  0  0  0  0  0  0  0  0
   -6.2059   -5.2345  -21.8920 H   0  0  0  0  0  0  0  0  0  0  0  0
   -7.8193   -5.6292  -21.3295 H   0  0  0  0  0  0  0  0  0  0  0  0
  1  2  2  0
  2  3  1  0
  3  4  1  0
  4  5  2  0
  5  6  1  0
  6  7  2  0
  7  8  1  0
  8  9  2  0
  9 10  1  0
 10 11  2  0
 11 12  1  0
 12 13  2  0
 12 14  1  0
 11 15  1  0
 10 16  1  0
  9 17  1  0
  7 18  1  0
  5 19  1  0
  3 20  1  0
  3 21  1  0
  2 22  1  0
 22 23  1  0
 23 24  1  0
 24 25  1  0
 25 26  1  0
 26 27  1  0
 26 28  1  0
 26 29  1  0
 25 30  1  0
 30 31  1  0
 31 32  1  0
 31 33  1  0
 30 34  1  0
 30 35  1  0
 25 36  1  0
 24 37  1  0
 24 38  1  0
 23 39  1  0
 23 40  1  0
 13  4  1  0
 31 22  1  0
 13  8  1  0
M  END
>  <cnnaffinities>  (86) 
[5.11451, 5.16273, 5.16264, 5.15963, 5.08876]

>  <score>  (86) 
5.11451

>  <index>  (86) 
88

>  <Smiles>  (86) 
O=C(C(c1c(nc(c2c(c(c(c(c12)[H])[H])[H])[H])[H])[H])([H])[H])N1C(C(C(C(F)(F)[H])(C(C1([H])[H])([H])[H])[H])([H])[H])([H])[H]

>  <h>  (86) 
<NA>

>  <Training>  (86) 
True

>  <Success>  (86) 
True

>  <enamine_searched>  (86) 
False

>  <enamine_id>  (86) 
nan

$$$$

     RDKit          3D

 43 45  0  0  0  0  0  0  0  0999 V2000
   -9.0568    1.0563  -27.1813 C   0  0  0  0  0  0  0  0  0  0  0  0
   -8.0229    0.5102  -26.1878 C   0  0  0  0  0  0  0  0  0  0  0  0
   -6.6982    0.2996  -26.9333 C   0  0  0  0  0  0  0  0  0  0  0  0
   -6.3044    1.2484  -27.3166 H   0  0  0  0  0  0  0  0  0  0  0  0
   -5.9333   -0.1392  -26.2828 H   0  0  0  0  0  0  0  0  0  0  0  0
   -6.8289   -0.3723  -27.7895 H   0  0  0  0  0  0  0  0  0  0  0  0
   -8.5344   -0.8267  -25.6165 C   0  0  0  0  0  0  0  0  0  0  0  0
   -7.9669   -1.1679  -24.2369 C   0  0  0  0  0  0  0  0  0  0  0  0
   -8.2709   -0.1190  -23.2689 N   0  0  0  0  0  0  0  0  0  0  0  0
   -8.3350   -0.3285  -21.9065 C   0  0  0  0  0  0  0  0  0  0  0  0
   -9.0501    0.3429  -21.1843 O   0  0  0  0  0  0  0  0  0  0  0  0
   -7.4289   -1.4117  -21.2839 C   0  0  0  0  0  0  0  0  0  0  0  0
   -6.5707   -0.8309  -20.1782 C   0  0  0  0  0  0  0  0  0  0  0  0
   -6.8766   -1.0391  -18.8588 C   0  0  0  0  0  0  0  0  0  0  0  0
   -6.1865   -0.5321  -17.8019 N   0  0  0  0  0  0  0  0  0  0  0  0
   -5.1526    0.2234  -18.0667 C   0  0  0  0  0  0  0  0  0  0  0  0
   -4.7173    0.5355  -19.3816 C   0  0  0  0  0  0  0  0  0  0  0  0
   -3.5962    1.3692  -19.6226 C   0  0  0  0  0  0  0  0  0  0  0  0
   -3.2075    1.6608  -20.9011 C   0  0  0  0  0  0  0  0  0  0  0  0
   -3.9279    1.1270  -21.9934 C   0  0  0  0  0  0  0  0  0  0  0  0
   -5.0153    0.3158  -21.7866 C   0  0  0  0  0  0  0  0  0  0  0  0
   -5.4440   -0.0040  -20.4715 C   0  0  0  0  0  0  0  0  0  0  0  0
   -5.5541   -0.0812  -22.6429 H   0  0  0  0  0  0  0  0  0  0  0  0
   -3.6160    1.3625  -23.0057 H   0  0  0  0  0  0  0  0  0  0  0  0
   -2.3540    2.3072  -21.0865 H   0  0  0  0  0  0  0  0  0  0  0  0
   -3.0588    1.7785  -18.7704 H   0  0  0  0  0  0  0  0  0  0  0  0
   -4.6005    0.6281  -17.2153 H   0  0  0  0  0  0  0  0  0  0  0  0
   -7.7288   -1.6596  -18.5829 H   0  0  0  0  0  0  0  0  0  0  0  0
   -8.0912   -2.1685  -20.8455 H   0  0  0  0  0  0  0  0  0  0  0  0
   -6.8068   -1.9200  -22.0300 H   0  0  0  0  0  0  0  0  0  0  0  0
   -8.6333    1.1986  -23.7904 C   0  0  0  0  0  0  0  0  0  0  0  0
   -7.8072    1.5159  -25.0352 C   0  0  0  0  0  0  0  0  0  0  0  0
   -8.0313    2.5288  -25.3844 H   0  0  0  0  0  0  0  0  0  0  0  0
   -6.7507    1.5342  -24.7418 H   0  0  0  0  0  0  0  0  0  0  0  0
   -9.7068    1.2605  -24.0103 H   0  0  0  0  0  0  0  0  0  0  0  0
   -8.4389    1.9330  -23.0092 H   0  0  0  0  0  0  0  0  0  0  0  0
   -8.4151   -2.1042  -23.8931 H   0  0  0  0  0  0  0  0  0  0  0  0
   -6.8838   -1.3438  -24.3080 H   0  0  0  0  0  0  0  0  0  0  0  0
   -9.6296   -0.8208  -25.5586 H   0  0  0  0  0  0  0  0  0  0  0  0
   -8.2898   -1.6335  -26.3130 H   0  0  0  0  0  0  0  0  0  0  0  0
   -9.2605    0.3376  -27.9841 H   0  0  0  0  0  0  0  0  0  0  0  0
  -10.0083    1.2822  -26.6873 H   0  0  0  0  0  0  0  0  0  0  0  0
   -8.7027    1.9824  -27.6492 H   0  0  0  0  0  0  0  0  0  0  0  0
  1  2  1  0
  2  3  1  0
  3  4  1  0
  3  5  1  0
  3  6  1  0
  2  7  1  0
  7  8  1  0
  8  9  1  0
  9 10  1  0
 10 11  2  0
 10 12  1  0
 12 13  1  0
 13 14  2  0
 14 15  1  0
 15 16  2  0
 16 17  1  0
 17 18  2  0
 18 19  1  0
 19 20  2  0
 20 21  1  0
 21 22  2  0
 21 23  1  0
 20 24  1  0
 19 25  1  0
 18 26  1  0
 16 27  1  0
 14 28  1  0
 12 29  1  0
 12 30  1  0
  9 31  1  0
 31 32  1  0
 32 33  1  0
 32 34  1  0
 31 35  1  0
 31 36  1  0
  8 37  1  0
  8 38  1  0
  7 39  1  0
  7 40  1  0
  1 41  1  0
  1 42  1  0
  1 43  1  0
 32  2  1  0
 22 13  1  0
 22 17  1  0
M  END
>  <cnnaffinities>  (87) 
[4.92667, 4.92667, 4.92666, 4.92959, 5.03761, 5.03763, 5.03758, 5.03764, 4.69162, 4.82231, 4.82234, 4.82233]

>  <score>  (87) 
4.92667

>  <index>  (87) 
89

>  <Smiles>  (87) 
C(C1(C([H])([H])[H])C(C(N(C(=O)C(c2c(nc(c3c(c(c(c(c23)[H])[H])[H])[H])[H])[H])([H])[H])C(C1([H])[H])([H])[H])([H])[H])([H])[H])([H])([H])[H]

>  <h>  (87) 
<NA>

>  <Training>  (87) 
True

>  <Success>  (87) 
True

>  <enamine_searched>  (87) 
False

>  <enamine_id>  (87) 
nan

$$$$

     RDKit          3D

 64 68  0  0  0  0  0  0  0  0999 V2000
   -7.3642   -4.1751  -27.2768 C   0  0  0  0  0  0  0  0  0  0  0  0
   -8.3222   -3.1699  -26.8608 N   0  0  0  0  0  0  0  0  0  0  0  0
   -9.3879   -3.4593  -26.0666 C   0  0  0  0  0  0  0  0  0  0  0  0
   -9.6437   -4.5904  -25.6800 O   0  0  0  0  0  0  0  0  0  0  0  0
  -10.2317   -2.2618  -25.6084 C   0  0  0  0  0  0  0  0  0  0  0  0
  -10.3651   -2.2987  -24.1758 N   0  0  0  0  0  0  0  0  0  0  0  0
   -9.4054   -1.5386  -23.3880 C   0  0  0  0  0  0  0  0  0  0  0  0
   -8.9054   -2.2225  -22.1031 C   0  0  2  0  0  0  0  0  0  0  0  0
   -8.2796   -1.1395  -21.2165 C   0  0  0  0  0  0  0  0  0  0  0  0
   -8.8798   -0.2244  -20.6848 O   0  0  0  0  0  0  0  0  0  0  0  0
   -6.9377   -1.3745  -21.0864 N   0  0  0  0  0  0  0  0  0  0  0  0
   -6.2102   -0.7277  -20.0622 C   0  0  0  0  0  0  0  0  0  0  0  0
   -6.5925   -0.8749  -18.7516 C   0  0  0  0  0  0  0  0  0  0  0  0
   -5.9232   -0.3355  -17.7079 N   0  0  0  0  0  0  0  0  0  0  0  0
   -4.8767    0.4035  -17.9748 C   0  0  0  0  0  0  0  0  0  0  0  0
   -4.4085    0.6806  -19.2902 C   0  0  0  0  0  0  0  0  0  0  0  0
   -3.2993    1.5280  -19.5366 C   0  0  0  0  0  0  0  0  0  0  0  0
   -2.9307    1.8264  -20.8185 C   0  0  0  0  0  0  0  0  0  0  0  0
   -3.6471    1.2912  -21.9125 C   0  0  0  0  0  0  0  0  0  0  0  0
   -4.7111    0.4498  -21.7019 C   0  0  0  0  0  0  0  0  0  0  0  0
   -5.1058    0.1173  -20.3799 C   0  0  0  0  0  0  0  0  0  0  0  0
   -5.2737    0.0582  -22.5453 H   0  0  0  0  0  0  0  0  0  0  0  0
   -3.3671    1.5567  -22.9266 H   0  0  0  0  0  0  0  0  0  0  0  0
   -2.0979    2.4973  -21.0043 H   0  0  0  0  0  0  0  0  0  0  0  0
   -2.7738    1.9442  -18.6830 H   0  0  0  0  0  0  0  0  0  0  0  0
   -4.3530    0.8385  -17.1244 H   0  0  0  0  0  0  0  0  0  0  0  0
   -7.4720   -1.4637  -18.4960 H   0  0  0  0  0  0  0  0  0  0  0  0
   -6.4744   -2.4625  -21.9258 C   0  0  0  0  0  0  0  0  0  0  0  0
   -7.7570   -3.2743  -22.2234 C   0  0  2  0  0  0  0  0  0  0  0  0
   -7.6542   -4.0740  -23.5208 C   0  0  0  0  0  0  0  0  0  0  0  0
   -6.4931   -5.4459  -23.5186 S   0  0  0  0  0  0  0  0  0  0  0  0
   -6.5841   -6.0967  -24.8164 O   0  0  0  0  0  0  0  0  0  0  0  0
   -5.2121   -5.0022  -22.9946 O   0  0  0  0  0  0  0  0  0  0  0  0
   -7.1173   -6.5071  -22.4161 N   0  0  0  0  0  0  0  0  0  0  0  0
   -8.3956   -7.1239  -22.7415 C   0  0  0  0  0  0  0  0  0  0  0  0
   -8.2815   -7.7030  -23.6575 H   0  0  0  0  0  0  0  0  0  0  0  0
   -9.2078   -6.4011  -22.8882 H   0  0  0  0  0  0  0  0  0  0  0  0
   -8.6608   -7.7962  -21.9275 H   0  0  0  0  0  0  0  0  0  0  0  0
   -6.9717   -6.1865  -21.4664 H   0  0  0  0  0  0  0  0  0  0  0  0
   -7.3264   -3.4517  -24.3611 H   0  0  0  0  0  0  0  0  0  0  0  0
   -8.6196   -4.5029  -23.7985 H   0  0  0  0  0  0  0  0  0  0  0  0
   -7.9317   -3.9782  -21.4025 H   0  0  0  0  0  0  0  0  0  0  0  0
   -6.0498   -2.0812  -22.8669 H   0  0  0  0  0  0  0  0  0  0  0  0
   -5.7122   -3.0604  -21.4284 H   0  0  0  0  0  0  0  0  0  0  0  0
  -10.1555   -2.6455  -21.3468 C   0  0  0  0  0  0  0  0  0  0  0  0
  -10.6254   -3.8826  -21.4873 C   0  0  0  0  0  0  0  0  0  0  0  0
  -13.4670   -4.0791  -20.6510 C   0  0  0  0  0  0  0  0  0  0  0  0
  -13.3118   -4.8778  -19.5917 F   0  0  0  0  0  0  0  0  0  0  0  0
  -13.4948   -4.0078  -20.6967 C   0  0  0  0  0  0  0  0  0  0  0  0
  -12.9396   -3.3691  -21.7569 C   0  0  0  0  0  0  0  0  0  0  0  0
  -11.5027   -3.2529  -22.2433 C   0  0  0  0  0  0  0  0  0  0  0  0
  -11.5098   -2.9041  -23.6890 C   0  0  0  0  0  0  0  0  0  0  0  0
  -12.4773   -3.1145  -24.4040 O   0  0  0  0  0  0  0  0  0  0  0  0
  -13.7352   -3.1098  -22.3660 H   0  0  0  0  0  0  0  0  0  0  0  0
  -14.6998   -4.3878  -20.9634 H   0  0  0  0  0  0  0  0  0  0  0  0
  -10.4875   -1.8370  -20.6710 H   0  0  0  0  0  0  0  0  0  0  0  0
   -9.8465   -0.5832  -23.0715 H   0  0  0  0  0  0  0  0  0  0  0  0
   -8.5485   -1.3276  -24.0363 H   0  0  0  0  0  0  0  0  0  0  0  0
  -11.2599   -2.3384  -25.9684 H   0  0  0  0  0  0  0  0  0  0  0  0
   -9.8007   -1.3087  -25.9301 H   0  0  0  0  0  0  0  0  0  0  0  0
   -8.2730   -2.2516  -27.2733 H   0  0  0  0  0  0  0  0  0  0  0  0
   -6.3426   -3.8615  -27.0363 H   0  0  0  0  0  0  0  0  0  0  0  0
   -7.4200   -4.3746  -28.3528 H   0  0  0  0  0  0  0  0  0  0  0  0
   -7.5845   -5.0931  -26.7299 H   0  0  0  0  0  0  0  0  0  0  0  0
  1  2  1  0
  2  3  1  0
  3  4  2  0
  3  5  1  0
  5  6  1  0
  6  7  1  0
  8  7  1  6
  8  9  1  0
  9 10  2  0
  9 11  1  0
 11 12  1  0
 12 13  2  0
 13 14  1  0
 14 15  2  0
 15 16  1  0
 16 17  2  0
 17 18  1  0
 18 19  2  0
 19 20  1  0
 20 21  2  0
 20 22  1  0
 19 23  1  0
 18 24  1  0
 17 25  1  0
 15 26  1  0
 13 27  1  0
 11 28  1  0
 28 29  1  0
 29 30  1  0
 30 31  1  0
 31 32  2  0
 31 33  2  0
 31 34  1  0
 34 35  1  0
 35 36  1  0
 35 37  1  0
 35 38  1  0
 34 39  1  0
 30 40  1  0
 30 41  1  0
 29 42  1  1
 28 43  1  0
 28 44  1  0
  8 45  1  0
 45 46  2  0
 46 47  1  0
 47 48  1  0
 47 49  2  0
 49 50  1  0
 50 51  2  0
 51 52  1  0
 52 53  2  0
 50 54  1  0
 49 55  1  0
 46 56  1  0
  7 57  1  0
  7 58  1  0
  5 59  1  0
  5 60  1  0
  2 61  1  0
  1 62  1  0
  1 63  1  0
  1 64  1  0
 52  6  1  0
 29  8  1  0
 51 45  1  0
 21 12  1  0
 21 16  1  0
M  END
>  <cnnaffinities>  (88) 
[6.30529]

>  <score>  (88) 
6.30529

>  <index>  (88) 
90

>  <Smiles>  (88) 
C(N(C(=O)C(N1C([C@@]2(C(=O)N(c3c(nc(c4c(c(c(c(c34)[H])[H])[H])[H])[H])[H])C([C@@]2(C(S(=O)(=O)N(C([H])([H])[H])[H])([H])[H])[H])([H])[H])c2c(c(F)c(c(c2C1=O)[H])[H])[H])([H])[H])([H])[H])[H])([H])([H])[H]

>  <h>  (88) 
<NA>

>  <Training>  (88) 
True

>  <Success>  (88) 
True

>  <enamine_searched>  (88) 
False

>  <enamine_id>  (88) 
nan

$$$$

     RDKit          3D

 66 71  0  0  0  0  0  0  0  0999 V2000
   -7.4658    3.1435  -21.7950 C   0  0  0  0  0  0  0  0  0  0  0  0
   -8.5411    2.7527  -22.6875 N   0  0  0  0  0  0  0  0  0  0  0  0
   -8.1963    2.0349  -23.7877 C   0  0  0  0  0  0  0  0  0  0  0  0
   -7.0267    1.7931  -24.0550 O   0  0  0  0  0  0  0  0  0  0  0  0
   -9.3305    1.5099  -24.6655 C   0  0  0  0  0  0  0  0  0  0  0  0
   -9.8926    0.3054  -24.0761 N   0  0  0  0  0  0  0  0  0  0  0  0
   -9.0845   -0.9097  -24.0460 C   0  0  0  0  0  0  0  0  0  0  0  0
   -9.2901   -1.6995  -22.7257 C   0  0  2  0  0  0  0  0  0  0  0  0
   -8.6745   -0.8733  -21.5547 C   0  0  0  0  0  0  0  0  0  0  0  0
   -9.1561    0.1079  -21.0245 O   0  0  0  0  0  0  0  0  0  0  0  0
   -7.4497   -1.4144  -21.2253 N   0  0  0  0  0  0  0  0  0  0  0  0
   -6.6328   -0.8372  -20.2103 C   0  0  0  0  0  0  0  0  0  0  0  0
   -6.9405   -1.0537  -18.8887 C   0  0  0  0  0  0  0  0  0  0  0  0
   -6.2310   -0.5647  -17.8452 N   0  0  0  0  0  0  0  0  0  0  0  0
   -5.1883    0.1807  -18.1087 C   0  0  0  0  0  0  0  0  0  0  0  0
   -4.7551    0.4967  -19.4254 C   0  0  0  0  0  0  0  0  0  0  0  0
   -3.6359    1.3400  -19.6540 C   0  0  0  0  0  0  0  0  0  0  0  0
   -3.2476    1.6447  -20.9299 C   0  0  0  0  0  0  0  0  0  0  0  0
   -3.9636    1.1235  -22.0279 C   0  0  0  0  0  0  0  0  0  0  0  0
   -5.0597    0.3116  -21.8325 C   0  0  0  0  0  0  0  0  0  0  0  0
   -5.4864   -0.0317  -20.5201 C   0  0  0  0  0  0  0  0  0  0  0  0
   -5.6360   -0.0181  -22.6913 H   0  0  0  0  0  0  0  0  0  0  0  0
   -3.6576    1.3757  -23.0385 H   0  0  0  0  0  0  0  0  0  0  0  0
   -2.3961    2.2965  -21.1033 H   0  0  0  0  0  0  0  0  0  0  0  0
   -3.1076    1.7405  -18.7933 H   0  0  0  0  0  0  0  0  0  0  0  0
   -4.6258    0.5801  -17.2623 H   0  0  0  0  0  0  0  0  0  0  0  0
   -7.8052   -1.6609  -18.6327 H   0  0  0  0  0  0  0  0  0  0  0  0
   -7.1055   -2.5879  -22.0105 C   0  0  0  0  0  0  0  0  0  0  0  0
   -8.4371   -3.0021  -22.6647 C   0  0  2  0  0  0  0  0  0  0  0  0
   -8.2138   -3.8129  -23.9506 C   0  0  0  0  0  0  0  0  0  0  0  0
   -9.4248   -4.4615  -24.4064 N   0  0  0  0  0  0  0  0  0  0  0  0
   -9.4888   -5.3503  -25.4514 C   0  0  0  0  0  0  0  0  0  0  0  0
   -8.3368   -5.9017  -26.0769 C   0  0  0  0  0  0  0  0  0  0  0  0
   -8.4155   -6.7704  -27.0723 N   0  0  0  0  0  0  0  0  0  0  0  0
   -9.6438   -7.1287  -27.4603 C   0  0  0  0  0  0  0  0  0  0  0  0
  -10.7647   -6.6093  -26.8321 C   0  0  0  0  0  0  0  0  0  0  0  0
  -10.7148   -5.7032  -25.8543 N   0  0  0  0  0  0  0  0  0  0  0  0
  -11.7475   -6.9011  -27.1579 H   0  0  0  0  0  0  0  0  0  0  0  0
   -9.7029   -7.8558  -28.2601 H   0  0  0  0  0  0  0  0  0  0  0  0
   -7.3311   -5.6192  -25.7641 H   0  0  0  0  0  0  0  0  0  0  0  0
  -10.3147   -4.0256  -24.2050 H   0  0  0  0  0  0  0  0  0  0  0  0
   -7.4768   -4.5955  -23.7302 H   0  0  0  0  0  0  0  0  0  0  0  0
   -7.7799   -3.1758  -24.7387 H   0  0  0  0  0  0  0  0  0  0  0  0
   -8.9315   -3.6699  -21.9552 H   0  0  0  0  0  0  0  0  0  0  0  0
   -6.3408   -2.3545  -22.7682 H   0  0  0  0  0  0  0  0  0  0  0  0
   -6.7094   -3.3845  -21.3711 H   0  0  0  0  0  0  0  0  0  0  0  0
  -10.7915   -1.8829  -22.5268 C   0  0  0  0  0  0  0  0  0  0  0  0
  -11.3229   -2.9211  -21.7481 C   0  0  0  0  0  0  0  0  0  0  0  0
  -12.6740   -2.9430  -21.4368 C   0  0  0  0  0  0  0  0  0  0  0  0
  -13.3052   -4.1257  -20.3343 Cl  0  0  0  0  0  0  0  0  0  0  0  0
  -13.5586   -1.9880  -21.9260 C   0  0  0  0  0  0  0  0  0  0  0  0
  -13.0529   -0.9745  -22.7086 C   0  0  0  0  0  0  0  0  0  0  0  0
  -11.6909   -0.9136  -23.0015 C   0  0  0  0  0  0  0  0  0  0  0  0
  -11.2298    0.2747  -23.7912 C   0  0  0  0  0  0  0  0  0  0  0  0
  -12.0009    1.1594  -24.1311 O   0  0  0  0  0  0  0  0  0  0  0  0
  -13.6919   -0.1835  -23.0810 H   0  0  0  0  0  0  0  0  0  0  0  0
  -14.6079   -2.0361  -21.6566 H   0  0  0  0  0  0  0  0  0  0  0  0
  -10.6968   -3.6997  -21.3286 H   0  0  0  0  0  0  0  0  0  0  0  0
   -8.0333   -0.6273  -24.1607 H   0  0  0  0  0  0  0  0  0  0  0  0
   -9.3594   -1.5502  -24.8965 H   0  0  0  0  0  0  0  0  0  0  0  0
  -10.1386    2.2386  -24.7821 H   0  0  0  0  0  0  0  0  0  0  0  0
   -8.9201    1.2953  -25.6599 H   0  0  0  0  0  0  0  0  0  0  0  0
   -9.4699    2.6805  -22.2930 H   0  0  0  0  0  0  0  0  0  0  0  0
   -7.8981    3.5278  -20.8789 H   0  0  0  0  0  0  0  0  0  0  0  0
   -6.8374    2.2781  -21.5627 H   0  0  0  0  0  0  0  0  0  0  0  0
   -6.8467    3.9214  -22.2502 H   0  0  0  0  0  0  0  0  0  0  0  0
  1  2  1  0
  2  3  1  0
  3  4  2  0
  3  5  1  0
  5  6  1  0
  6  7  1  0
  8  7  1  6
  8  9  1  0
  9 10  2  0
  9 11  1  0
 11 12  1  0
 12 13  2  0
 13 14  1  0
 14 15  2  0
 15 16  1  0
 16 17  2  0
 17 18  1  0
 18 19  2  0
 19 20  1  0
 20 21  2  0
 20 22  1  0
 19 23  1  0
 18 24  1  0
 17 25  1  0
 15 26  1  0
 13 27  1  0
 11 28  1  0
 28 29  1  0
 29 30  1  0
 30 31  1  0
 31 32  1  0
 32 33  2  0
 33 34  1  0
 34 35  2  0
 35 36  1  0
 36 37  2  0
 36 38  1  0
 35 39  1  0
 33 40  1  0
 31 41  1  0
 30 42  1  0
 30 43  1  0
 29 44  1  1
 28 45  1  0
 28 46  1  0
  8 47  1  0
 47 48  2  0
 48 49  1  0
 49 50  1  0
 49 51  2  0
 51 52  1  0
 52 53  2  0
 53 54  1  0
 54 55  2  0
 52 56  1  0
 51 57  1  0
 48 58  1  0
  7 59  1  0
  7 60  1  0
  5 61  1  0
  5 62  1  0
  2 63  1  0
  1 64  1  0
  1 65  1  0
  1 66  1  0
 54  6  1  0
 29  8  1  0
 37 32  1  0
 53 47  1  0
 21 12  1  0
 21 16  1  0
M  END
>  <cnnaffinities>  (89) 
[6.42202]

>  <score>  (89) 
6.42202

>  <index>  (89) 
91

>  <Smiles>  (89) 
C(N(C(=O)C(N1C([C@@]2(C(=O)N(c3c(nc(c4c(c(c(c(c34)[H])[H])[H])[H])[H])[H])C([C@@]2(C(N(c2c(nc(c(n2)[H])[H])[H])[H])([H])[H])[H])([H])[H])c2c(c(Cl)c(c(c2C1=O)[H])[H])[H])([H])[H])([H])[H])[H])([H])([H])[H]

>  <h>  (89) 
<NA>

>  <Training>  (89) 
True

>  <Success>  (89) 
True

>  <enamine_searched>  (89) 
False

>  <enamine_id>  (89) 
nan

$$$$

     RDKit          3D

 60 65  0  0  0  0  0  0  0  0999 V2000
   -6.7864   -3.4329  -26.0926 C   0  0  0  0  0  0  0  0  0  0  0  0
   -7.0199   -2.8827  -24.8204 O   0  0  0  0  0  0  0  0  0  0  0  0
   -7.9972   -3.5878  -24.0836 C   0  0  0  0  0  0  0  0  0  0  0  0
   -8.3031   -2.8774  -22.7664 C   0  0  1  0  0  0  0  0  0  0  0  0
   -7.0311   -2.5417  -21.9741 C   0  0  0  0  0  0  0  0  0  0  0  0
   -7.3838   -1.3407  -21.2418 N   0  0  0  0  0  0  0  0  0  0  0  0
   -6.5955   -0.7986  -20.1980 C   0  0  0  0  0  0  0  0  0  0  0  0
   -6.9191   -1.0305  -18.8836 C   0  0  0  0  0  0  0  0  0  0  0  0
   -6.2154   -0.5427  -17.8349 N   0  0  0  0  0  0  0  0  0  0  0  0
   -5.1767    0.2108  -18.0940 C   0  0  0  0  0  0  0  0  0  0  0  0
   -4.7344    0.5354  -19.4096 C   0  0  0  0  0  0  0  0  0  0  0  0
   -3.6170    1.3765  -19.6472 C   0  0  0  0  0  0  0  0  0  0  0  0
   -3.2275    1.6631  -20.9265 C   0  0  0  0  0  0  0  0  0  0  0  0
   -3.9172    1.1078  -22.0250 C   0  0  0  0  0  0  0  0  0  0  0  0
   -4.9905    0.2717  -21.8170 C   0  0  0  0  0  0  0  0  0  0  0  0
   -5.4441   -0.0105  -20.5013 C   0  0  0  0  0  0  0  0  0  0  0  0
   -5.5016   -0.1711  -22.6672 H   0  0  0  0  0  0  0  0  0  0  0  0
   -3.5894    1.3416  -23.0332 H   0  0  0  0  0  0  0  0  0  0  0  0
   -2.3754    2.3091  -21.1049 H   0  0  0  0  0  0  0  0  0  0  0  0
   -3.0888    1.7829  -18.7899 H   0  0  0  0  0  0  0  0  0  0  0  0
   -4.6192    0.6068  -17.2449 H   0  0  0  0  0  0  0  0  0  0  0  0
   -7.7846   -1.6418  -18.6402 H   0  0  0  0  0  0  0  0  0  0  0  0
   -8.6065   -0.8027  -21.5753 C   0  0  0  0  0  0  0  0  0  0  0  0
   -9.1473    0.1047  -20.9785 O   0  0  0  0  0  0  0  0  0  0  0  0
   -9.1510   -1.5675  -22.8071 C   0  0  1  0  0  0  0  0  0  0  0  0
   -8.8988   -0.7886  -24.1211 C   0  0  0  0  0  0  0  0  0  0  0  0
   -9.7456    0.3825  -24.2379 N   0  0  0  0  0  0  0  0  0  0  0  0
   -9.1498    1.6116  -24.7445 C   0  0  0  0  0  0  0  0  0  0  0  0
   -8.3472    2.3762  -23.7149 C   0  0  0  0  0  0  0  0  0  0  0  0
   -8.8747    3.2896  -22.7681 C   0  0  0  0  0  0  0  0  0  0  0  0
   -7.9411    3.7693  -21.9473 N   0  0  0  0  0  0  0  0  0  0  0  0
   -6.8146    3.1877  -22.3674 N   0  0  0  0  0  0  0  0  0  0  0  0
   -6.9988    2.3517  -23.4163 C   0  0  0  0  0  0  0  0  0  0  0  0
   -6.1412    1.8134  -23.7999 H   0  0  0  0  0  0  0  0  0  0  0  0
   -5.9307    3.3631  -21.9121 H   0  0  0  0  0  0  0  0  0  0  0  0
   -9.9063    3.6191  -22.6560 H   0  0  0  0  0  0  0  0  0  0  0  0
   -8.5430    1.3504  -25.6181 H   0  0  0  0  0  0  0  0  0  0  0  0
   -9.9777    2.2286  -25.1057 H   0  0  0  0  0  0  0  0  0  0  0  0
  -11.0978    0.3119  -24.0452 C   0  0  0  0  0  0  0  0  0  0  0  0
  -11.8708    1.1613  -24.4718 O   0  0  0  0  0  0  0  0  0  0  0  0
  -11.5642   -0.8588  -23.2390 C   0  0  0  0  0  0  0  0  0  0  0  0
  -12.9363   -0.9918  -23.0315 C   0  0  0  0  0  0  0  0  0  0  0  0
  -13.4283   -1.9745  -22.2005 C   0  0  0  0  0  0  0  0  0  0  0  0
  -12.5163   -2.8150  -21.5696 C   0  0  0  0  0  0  0  0  0  0  0  0
  -13.1217   -3.9976  -20.4590 Cl  0  0  0  0  0  0  0  0  0  0  0  0
  -11.1558   -2.7135  -21.7811 C   0  0  0  0  0  0  0  0  0  0  0  0
  -10.6501   -1.7445  -22.6516 C   0  0  0  0  0  0  0  0  0  0  0  0
  -10.4965   -3.3779  -21.2358 H   0  0  0  0  0  0  0  0  0  0  0  0
  -14.4891   -2.0852  -22.0065 H   0  0  0  0  0  0  0  0  0  0  0  0
  -13.5952   -0.2863  -23.5206 H   0  0  0  0  0  0  0  0  0  0  0  0
   -9.0781   -1.4780  -24.9560 H   0  0  0  0  0  0  0  0  0  0  0  0
   -7.8571   -0.4683  -24.1811 H   0  0  0  0  0  0  0  0  0  0  0  0
   -6.1789   -2.3738  -22.6426 H   0  0  0  0  0  0  0  0  0  0  0  0
   -6.7689   -3.3484  -21.2807 H   0  0  0  0  0  0  0  0  0  0  0  0
   -8.8800   -3.5976  -22.1834 H   0  0  0  0  0  0  0  0  0  0  0  0
   -7.6308   -4.6022  -23.8631 H   0  0  0  0  0  0  0  0  0  0  0  0
   -8.9214   -3.6949  -24.6760 H   0  0  0  0  0  0  0  0  0  0  0  0
   -6.0226   -2.8237  -26.5820 H   0  0  0  0  0  0  0  0  0  0  0  0
   -6.4189   -4.4681  -26.0267 H   0  0  0  0  0  0  0  0  0  0  0  0
   -7.6962   -3.4199  -26.7127 H   0  0  0  0  0  0  0  0  0  0  0  0
  1  2  1  0
  2  3  1  0
  3  4  1  0
  4  5  1  0
  5  6  1  0
  6  7  1  0
  7  8  2  0
  8  9  1  0
  9 10  2  0
 10 11  1  0
 11 12  2  0
 12 13  1  0
 13 14  2  0
 14 15  1  0
 15 16  2  0
 15 17  1  0
 14 18  1  0
 13 19  1  0
 12 20  1  0
 10 21  1  0
  8 22  1  0
  6 23  1  0
 23 24  2  0
 23 25  1  0
 25 26  1  6
 26 27  1  0
 27 28  1  0
 28 29  1  0
 29 30  1  0
 30 31  2  0
 31 32  1  0
 32 33  1  0
 33 34  1  0
 32 35  1  0
 30 36  1  0
 28 37  1  0
 28 38  1  0
 27 39  1  0
 39 40  2  0
 39 41  1  0
 41 42  2  0
 42 43  1  0
 43 44  2  0
 44 45  1  0
 44 46  1  0
 46 47  2  0
 46 48  1  0
 43 49  1  0
 42 50  1  0
 26 51  1  0
 26 52  1  0
  5 53  1  0
  5 54  1  0
  4 55  1  1
  3 56  1  0
  3 57  1  0
  1 58  1  0
  1 59  1  0
  1 60  1  0
 25  4  1  0
 33 29  2  0
 47 41  1  0
 16  7  1  0
 47 25  1  0
 16 11  1  0
M  END
>  <cnnaffinities>  (90) 
[6.62607]

>  <score>  (90) 
6.62607

>  <index>  (90) 
92

>  <Smiles>  (90) 
C(OC([C@]1(C(N(c2c(nc(c3c(c(c(c(c23)[H])[H])[H])[H])[H])[H])C(=O)[C@]21C(N(C(c1c(nn(c1[H])[H])[H])([H])[H])C(=O)c1c(c(c(Cl)c(c21)[H])[H])[H])([H])[H])([H])[H])[H])([H])[H])([H])([H])[H]

>  <h>  (90) 
<NA>

>  <Training>  (90) 
True

>  <Success>  (90) 
True

>  <enamine_searched>  (90) 
False

>  <enamine_id>  (90) 
nan

$$$$

     RDKit          3D

 62 67  0  0  0  0  0  0  0  0999 V2000
  -11.3178    4.3027  -25.2303 C   0  0  0  0  0  0  0  0  0  0  0  0
   -9.8241    4.1722  -25.5272 C   0  0  0  0  0  0  0  0  0  0  0  0
   -9.0690    3.5907  -24.4244 N   0  0  0  0  0  0  0  0  0  0  0  0
   -8.4886    4.4137  -23.5371 N   0  0  0  0  0  0  0  0  0  0  0  0
   -7.9032    3.6204  -22.6503 C   0  0  0  0  0  0  0  0  0  0  0  0
   -8.1109    2.2653  -22.9711 C   0  0  0  0  0  0  0  0  0  0  0  0
   -8.8904    2.2772  -24.1053 C   0  0  0  0  0  0  0  0  0  0  0  0
   -9.3904    1.1047  -24.9076 C   0  0  0  0  0  0  0  0  0  0  0  0
   -9.8514    0.0035  -24.0835 N   0  0  0  0  0  0  0  0  0  0  0  0
   -9.0394   -1.1942  -23.9798 C   0  0  0  0  0  0  0  0  0  0  0  0
   -9.2254   -1.9119  -22.6162 C   0  0  2  0  0  0  0  0  0  0  0  0
   -8.6617   -1.0277  -21.4696 C   0  0  0  0  0  0  0  0  0  0  0  0
   -9.2269   -0.1060  -20.9098 O   0  0  0  0  0  0  0  0  0  0  0  0
   -7.3763   -1.4349  -21.1929 N   0  0  0  0  0  0  0  0  0  0  0  0
   -6.5993   -0.8246  -20.1692 C   0  0  0  0  0  0  0  0  0  0  0  0
   -6.9053   -1.0473  -18.8495 C   0  0  0  0  0  0  0  0  0  0  0  0
   -6.1941   -0.5447  -17.8123 N   0  0  0  0  0  0  0  0  0  0  0  0
   -5.1626    0.2087  -18.0836 C   0  0  0  0  0  0  0  0  0  0  0  0
   -4.7297    0.5287  -19.4001 C   0  0  0  0  0  0  0  0  0  0  0  0
   -3.6060    1.3643  -19.6428 C   0  0  0  0  0  0  0  0  0  0  0  0
   -3.2262    1.6629  -20.9196 C   0  0  0  0  0  0  0  0  0  0  0  0
   -3.9546    1.1370  -22.0117 C   0  0  0  0  0  0  0  0  0  0  0  0
   -5.0470    0.3262  -21.8012 C   0  0  0  0  0  0  0  0  0  0  0  0
   -5.4658   -0.0043  -20.4870 C   0  0  0  0  0  0  0  0  0  0  0  0
   -5.5976   -0.0642  -22.6532 H   0  0  0  0  0  0  0  0  0  0  0  0
   -3.6572    1.3824  -23.0257 H   0  0  0  0  0  0  0  0  0  0  0  0
   -2.3765    2.3163  -21.1035 H   0  0  0  0  0  0  0  0  0  0  0  0
   -3.0732    1.7693  -18.7846 H   0  0  0  0  0  0  0  0  0  0  0  0
   -4.6135    0.6157  -17.2322 H   0  0  0  0  0  0  0  0  0  0  0  0
   -7.7524   -1.6722  -18.5780 H   0  0  0  0  0  0  0  0  0  0  0  0
   -6.9629   -2.6134  -21.9355 C   0  0  0  0  0  0  0  0  0  0  0  0
   -8.2915   -3.1589  -22.5105 C   0  0  2  0  0  0  0  0  0  0  0  0
   -8.0941   -3.9857  -23.7846 C   0  0  0  0  0  0  0  0  0  0  0  0
   -7.5543   -3.4106  -24.5484 H   0  0  0  0  0  0  0  0  0  0  0  0
   -7.5058   -4.8893  -23.5818 H   0  0  0  0  0  0  0  0  0  0  0  0
   -9.0502   -4.2982  -24.2211 H   0  0  0  0  0  0  0  0  0  0  0  0
   -8.7280   -3.7972  -21.7358 H   0  0  0  0  0  0  0  0  0  0  0  0
   -6.4621   -3.3256  -21.2701 H   0  0  0  0  0  0  0  0  0  0  0  0
   -6.2531   -2.3610  -22.7395 H   0  0  0  0  0  0  0  0  0  0  0  0
  -10.7170   -2.1435  -22.4341 C   0  0  0  0  0  0  0  0  0  0  0  0
  -11.2333   -3.2192  -21.6995 C   0  0  0  0  0  0  0  0  0  0  0  0
  -12.5883   -3.2661  -21.4376 C   0  0  0  0  0  0  0  0  0  0  0  0
  -13.0871   -4.1975  -20.6095 F   0  0  0  0  0  0  0  0  0  0  0  0
  -13.4839   -2.3356  -21.9437 C   0  0  0  0  0  0  0  0  0  0  0  0
  -12.9871   -1.2692  -22.6587 C   0  0  0  0  0  0  0  0  0  0  0  0
  -11.6168   -1.1644  -22.8928 C   0  0  0  0  0  0  0  0  0  0  0  0
  -11.1425    0.0424  -23.6464 C   0  0  0  0  0  0  0  0  0  0  0  0
  -11.8782    0.9936  -23.8701 O   0  0  0  0  0  0  0  0  0  0  0  0
  -13.6341   -0.4796  -23.0255 H   0  0  0  0  0  0  0  0  0  0  0  0
  -14.5349   -2.4728  -21.7247 H   0  0  0  0  0  0  0  0  0  0  0  0
  -10.6021   -3.9849  -21.2623 H   0  0  0  0  0  0  0  0  0  0  0  0
   -9.2985   -1.9061  -24.7820 H   0  0  0  0  0  0  0  0  0  0  0  0
   -7.9934   -0.8945  -24.0906 H   0  0  0  0  0  0  0  0  0  0  0  0
  -10.2045    1.4067  -25.5762 H   0  0  0  0  0  0  0  0  0  0  0  0
   -8.5746    0.7052  -25.5176 H   0  0  0  0  0  0  0  0  0  0  0  0
   -7.7788    1.3715  -22.4635 H   0  0  0  0  0  0  0  0  0  0  0  0
   -7.3643    4.0664  -21.8196 H   0  0  0  0  0  0  0  0  0  0  0  0
   -9.3663    5.1519  -25.7081 H   0  0  0  0  0  0  0  0  0  0  0  0
   -9.6516    3.5480  -26.4133 H   0  0  0  0  0  0  0  0  0  0  0  0
  -11.7704    3.3212  -25.0409 H   0  0  0  0  0  0  0  0  0  0  0  0
  -11.4844    4.9448  -24.3583 H   0  0  0  0  0  0  0  0  0  0  0  0
  -11.8197    4.7598  -26.0897 H   0  0  0  0  0  0  0  0  0  0  0  0
  1  2  1  0
  2  3  1  0
  3  4  1  0
  4  5  2  0
  5  6  1  0
  6  7  2  0
  7  8  1  0
  8  9  1  0
  9 10  1  0
 11 10  1  6
 11 12  1  0
 12 13  2  0
 12 14  1  0
 14 15  1  0
 15 16  2  0
 16 17  1  0
 17 18  2  0
 18 19  1  0
 19 20  2  0
 20 21  1  0
 21 22  2  0
 22 23  1  0
 23 24  2  0
 23 25  1  0
 22 26  1  0
 21 27  1  0
 20 28  1  0
 18 29  1  0
 16 30  1  0
 14 31  1  0
 31 32  1  0
 32 33  1  0
 33 34  1  0
 33 35  1  0
 33 36  1  0
 32 37  1  1
 31 38  1  0
 31 39  1  0
 11 40  1  0
 40 41  2  0
 41 42  1  0
 42 43  1  0
 42 44  2  0
 44 45  1  0
 45 46  2  0
 46 47  1  0
 47 48  2  0
 45 49  1  0
 44 50  1  0
 41 51  1  0
 10 52  1  0
 10 53  1  0
  8 54  1  0
  8 55  1  0
  6 56  1  0
  5 57  1  0
  2 58  1  0
  2 59  1  0
  1 60  1  0
  1 61  1  0
  1 62  1  0
  7  3  1  0
 47  9  1  0
 32 11  1  0
 46 40  1  0
 24 15  1  0
 24 19  1  0
M  END
>  <cnnaffinities>  (91) 
[6.90654]

>  <score>  (91) 
6.90654

>  <index>  (91) 
93

>  <Smiles>  (91) 
C(C(n1nc(c(c1C(N1C([C@@]2(C(=O)N(c3c(nc(c4c(c(c(c(c34)[H])[H])[H])[H])[H])[H])C([C@@]2(C([H])([H])[H])[H])([H])[H])c2c(c(F)c(c(c2C1=O)[H])[H])[H])([H])[H])([H])[H])[H])[H])([H])[H])([H])([H])[H]

>  <h>  (91) 
<NA>

>  <Training>  (91) 
True

>  <Success>  (91) 
True

>  <enamine_searched>  (91) 
False

>  <enamine_id>  (91) 
nan

$$$$

     RDKit          3D

 66 71  0  0  0  0  0  0  0  0999 V2000
   -7.4690    3.2937  -21.6963 C   0  0  0  0  0  0  0  0  0  0  0  0
   -8.3550    2.8489  -22.7529 N   0  0  0  0  0  0  0  0  0  0  0  0
   -7.7999    2.2016  -23.7965 C   0  0  0  0  0  0  0  0  0  0  0  0
   -6.5860    2.1235  -23.9390 O   0  0  0  0  0  0  0  0  0  0  0  0
   -8.7582    1.5803  -24.8202 C   0  0  0  0  0  0  0  0  0  0  0  0
   -9.4613    0.4096  -24.3287 N   0  0  0  0  0  0  0  0  0  0  0  0
   -8.7247   -0.8354  -24.1922 C   0  0  0  0  0  0  0  0  0  0  0  0
   -9.0837   -1.5716  -22.8752 C   0  0  2  0  0  0  0  0  0  0  0  0
   -8.5443   -0.7708  -21.6553 C   0  0  0  0  0  0  0  0  0  0  0  0
   -9.0270    0.2269  -21.1592 O   0  0  0  0  0  0  0  0  0  0  0  0
   -7.3982   -1.3822  -21.2041 N   0  0  0  0  0  0  0  0  0  0  0  0
   -6.6051   -0.8075  -20.1771 C   0  0  0  0  0  0  0  0  0  0  0  0
   -6.9072   -1.0421  -18.8601 C   0  0  0  0  0  0  0  0  0  0  0  0
   -6.1988   -0.5474  -17.8178 N   0  0  0  0  0  0  0  0  0  0  0  0
   -5.1651    0.2094  -18.0816 C   0  0  0  0  0  0  0  0  0  0  0  0
   -4.7280    0.5320  -19.3974 C   0  0  0  0  0  0  0  0  0  0  0  0
   -3.6020    1.3668  -19.6422 C   0  0  0  0  0  0  0  0  0  0  0  0
   -3.2182    1.6609  -20.9210 C   0  0  0  0  0  0  0  0  0  0  0  0
   -3.9430    1.1335  -22.0133 C   0  0  0  0  0  0  0  0  0  0  0  0
   -5.0344    0.3248  -21.8016 C   0  0  0  0  0  0  0  0  0  0  0  0
   -5.4638    0.0025  -20.4862 C   0  0  0  0  0  0  0  0  0  0  0  0
   -5.5948   -0.0542  -22.6515 H   0  0  0  0  0  0  0  0  0  0  0  0
   -3.6557    1.3747  -23.0306 H   0  0  0  0  0  0  0  0  0  0  0  0
   -2.3675    2.3131  -21.1012 H   0  0  0  0  0  0  0  0  0  0  0  0
   -3.0708    1.7726  -18.7847 H   0  0  0  0  0  0  0  0  0  0  0  0
   -4.6171    0.6121  -17.2292 H   0  0  0  0  0  0  0  0  0  0  0  0
   -7.7563   -1.6684  -18.5982 H   0  0  0  0  0  0  0  0  0  0  0  0
   -7.0299   -2.5753  -21.9343 C   0  0  0  0  0  0  0  0  0  0  0  0
   -8.3052   -2.9225  -22.7296 C   0  0  2  0  0  0  0  0  0  0  0  0
   -7.9947   -3.7282  -24.0182 C   0  0  0  0  0  0  0  0  0  0  0  0
   -7.4779   -5.0646  -23.7795 N   0  0  0  0  0  0  0  0  0  0  0  0
   -6.1883   -5.3892  -23.5147 C   0  0  0  0  0  0  0  0  0  0  0  0
   -5.0981   -4.6011  -23.9355 C   0  0  0  0  0  0  0  0  0  0  0  0
   -3.8413   -5.0617  -23.5908 C   0  0  0  0  0  0  0  0  0  0  0  0
   -3.6404   -6.1827  -22.8822 N   0  0  0  0  0  0  0  0  0  0  0  0
   -4.7423   -6.8529  -22.5603 C   0  0  0  0  0  0  0  0  0  0  0  0
   -6.0017   -6.5417  -22.8445 N   0  0  0  0  0  0  0  0  0  0  0  0
   -4.5854   -7.7765  -21.9885 H   0  0  0  0  0  0  0  0  0  0  0  0
   -2.9409   -4.5114  -23.8921 H   0  0  0  0  0  0  0  0  0  0  0  0
   -5.2448   -3.6909  -24.5170 H   0  0  0  0  0  0  0  0  0  0  0  0
   -8.1232   -5.7906  -23.5087 H   0  0  0  0  0  0  0  0  0  0  0  0
   -7.2735   -3.1766  -24.6387 H   0  0  0  0  0  0  0  0  0  0  0  0
   -8.9097   -3.8577  -24.6059 H   0  0  0  0  0  0  0  0  0  0  0  0
   -8.9319   -3.5615  -22.1023 H   0  0  0  0  0  0  0  0  0  0  0  0
   -6.1755   -2.3809  -22.6031 H   0  0  0  0  0  0  0  0  0  0  0  0
   -6.7273   -3.3738  -21.2492 H   0  0  0  0  0  0  0  0  0  0  0  0
  -10.6003   -1.6473  -22.7884 C   0  0  0  0  0  0  0  0  0  0  0  0
  -11.2175   -2.5586  -21.9233 C   0  0  0  0  0  0  0  0  0  0  0  0
  -12.5954   -2.5967  -21.8207 C   0  0  0  0  0  0  0  0  0  0  0  0
  -13.3469   -3.7327  -20.7397 Cl  0  0  0  0  0  0  0  0  0  0  0  0
  -13.4064   -1.7314  -22.5535 C   0  0  0  0  0  0  0  0  0  0  0  0
  -12.8054   -0.7843  -23.3568 C   0  0  0  0  0  0  0  0  0  0  0  0
  -11.4154   -0.7173  -23.4531 C   0  0  0  0  0  0  0  0  0  0  0  0
  -10.8253    0.4341  -24.2162 C   0  0  0  0  0  0  0  0  0  0  0  0
  -11.5162    1.3354  -24.6653 O   0  0  0  0  0  0  0  0  0  0  0  0
  -13.3855   -0.0544  -23.9119 H   0  0  0  0  0  0  0  0  0  0  0  0
  -14.4845   -1.7958  -22.4633 H   0  0  0  0  0  0  0  0  0  0  0  0
  -10.6351   -3.2288  -21.3026 H   0  0  0  0  0  0  0  0  0  0  0  0
   -7.6622   -0.5758  -24.1947 H   0  0  0  0  0  0  0  0  0  0  0  0
   -8.9352   -1.5002  -25.0463 H   0  0  0  0  0  0  0  0  0  0  0  0
   -9.5395    2.2805  -25.1293 H   0  0  0  0  0  0  0  0  0  0  0  0
   -8.1271    1.3277  -25.6801 H   0  0  0  0  0  0  0  0  0  0  0  0
   -9.3484    2.7710  -22.5846 H   0  0  0  0  0  0  0  0  0  0  0  0
   -6.8464    2.4602  -21.3445 H   0  0  0  0  0  0  0  0  0  0  0  0
   -8.0756    3.6743  -20.8886 H   0  0  0  0  0  0  0  0  0  0  0  0
   -6.8100    4.0913  -22.0533 H   0  0  0  0  0  0  0  0  0  0  0  0
  1  2  1  0
  2  3  1  0
  3  4  2  0
  3  5  1  0
  5  6  1  0
  6  7  1  0
  8  7  1  6
  8  9  1  0
  9 10  2  0
  9 11  1  0
 11 12  1  0
 12 13  2  0
 13 14  1  0
 14 15  2  0
 15 16  1  0
 16 17  2  0
 17 18  1  0
 18 19  2  0
 19 20  1  0
 20 21  2  0
 20 22  1  0
 19 23  1  0
 18 24  1  0
 17 25  1  0
 15 26  1  0
 13 27  1  0
 11 28  1  0
 28 29  1  0
 29 30  1  0
 30 31  1  0
 31 32  1  0
 32 33  2  0
 33 34  1  0
 34 35  2  0
 35 36  1  0
 36 37  2  0
 36 38  1  0
 34 39  1  0
 33 40  1  0
 31 41  1  0
 30 42  1  0
 30 43  1  0
 29 44  1  1
 28 45  1  0
 28 46  1  0
  8 47  1  0
 47 48  2  0
 48 49  1  0
 49 50  1  0
 49 51  2  0
 51 52  1  0
 52 53  2  0
 53 54  1  0
 54 55  2  0
 52 56  1  0
 51 57  1  0
 48 58  1  0
  7 59  1  0
  7 60  1  0
  5 61  1  0
  5 62  1  0
  2 63  1  0
  1 64  1  0
  1 65  1  0
  1 66  1  0
 54  6  1  0
 29  8  1  0
 37 32  1  0
 53 47  1  0
 21 12  1  0
 21 16  1  0
M  END
>  <cnnaffinities>  (92) 
[7.09377, 6.9793]

>  <score>  (92) 
7.09377

>  <index>  (92) 
95

>  <Smiles>  (92) 
C(N(C(=O)C(N1C([C@@]2(C(=O)N(c3c(nc(c4c(c(c(c(c34)[H])[H])[H])[H])[H])[H])C([C@@]2(C(N(c2c(c(nc(n2)[H])[H])[H])[H])([H])[H])[H])([H])[H])c2c(c(Cl)c(c(c2C1=O)[H])[H])[H])([H])[H])([H])[H])[H])([H])([H])[H]

>  <h>  (92) 
<NA>

>  <Training>  (92) 
True

>  <Success>  (92) 
True

>  <enamine_searched>  (92) 
False

>  <enamine_id>  (92) 
nan

$$$$

     RDKit          3D

 66 70  0  0  0  0  0  0  0  0999 V2000
   -7.4415    3.2931  -21.6890 C   0  0  0  0  0  0  0  0  0  0  0  0
   -8.3500    2.9009  -22.7431 N   0  0  0  0  0  0  0  0  0  0  0  0
   -7.8192    2.2421  -23.7967 C   0  0  0  0  0  0  0  0  0  0  0  0
   -6.6131    2.1315  -23.9457 O   0  0  0  0  0  0  0  0  0  0  0  0
   -8.7853    1.6436  -24.8117 C   0  0  0  0  0  0  0  0  0  0  0  0
   -9.4665    0.4627  -24.3242 N   0  0  0  0  0  0  0  0  0  0  0  0
   -8.7050   -0.7639  -24.1764 C   0  0  0  0  0  0  0  0  0  0  0  0
   -9.0683   -1.5191  -22.8767 C   0  0  2  0  0  0  0  0  0  0  0  0
   -8.5389   -0.7509  -21.6428 C   0  0  0  0  0  0  0  0  0  0  0  0
   -9.0182    0.2391  -21.1278 O   0  0  0  0  0  0  0  0  0  0  0  0
   -7.4019   -1.3792  -21.1974 N   0  0  0  0  0  0  0  0  0  0  0  0
   -6.6021   -0.8091  -20.1737 C   0  0  0  0  0  0  0  0  0  0  0  0
   -6.9122   -1.0404  -18.8569 C   0  0  0  0  0  0  0  0  0  0  0  0
   -6.2061   -0.5455  -17.8147 N   0  0  0  0  0  0  0  0  0  0  0  0
   -5.1700    0.2091  -18.0816 C   0  0  0  0  0  0  0  0  0  0  0  0
   -4.7343    0.5303  -19.3998 C   0  0  0  0  0  0  0  0  0  0  0  0
   -3.6077    1.3634  -19.6425 C   0  0  0  0  0  0  0  0  0  0  0  0
   -3.2209    1.6577  -20.9224 C   0  0  0  0  0  0  0  0  0  0  0  0
   -3.9456    1.1348  -22.0178 C   0  0  0  0  0  0  0  0  0  0  0  0
   -5.0395    0.3270  -21.8079 C   0  0  0  0  0  0  0  0  0  0  0  0
   -5.4661    0.0026  -20.4895 C   0  0  0  0  0  0  0  0  0  0  0  0
   -5.5984   -0.0446  -22.6619 H   0  0  0  0  0  0  0  0  0  0  0  0
   -3.6559    1.3791  -23.0350 H   0  0  0  0  0  0  0  0  0  0  0  0
   -2.3685    2.3088  -21.1000 H   0  0  0  0  0  0  0  0  0  0  0  0
   -3.0744    1.7644  -18.7848 H   0  0  0  0  0  0  0  0  0  0  0  0
   -4.6131    0.6070  -17.2330 H   0  0  0  0  0  0  0  0  0  0  0  0
   -7.7699   -1.6607  -18.6035 H   0  0  0  0  0  0  0  0  0  0  0  0
   -7.0421   -2.5683  -21.9431 C   0  0  0  0  0  0  0  0  0  0  0  0
   -8.3040   -2.8752  -22.7690 C   0  0  2  0  0  0  0  0  0  0  0  0
   -7.9721   -3.6134  -24.0738 C   0  0  0  0  0  0  0  0  0  0  0  0
   -9.1145   -3.9439  -24.8315 O   0  0  0  0  0  0  0  0  0  0  0  0
   -9.6954   -5.2128  -24.5491 C   0  0  0  0  0  0  0  0  0  0  0  0
  -11.1895   -5.0659  -24.7530 C   0  0  0  0  0  0  0  0  0  0  0  0
  -11.6925   -6.0166  -24.5535 H   0  0  0  0  0  0  0  0  0  0  0  0
  -11.5963   -4.3024  -24.0841 H   0  0  0  0  0  0  0  0  0  0  0  0
  -11.3992   -4.7585  -25.7805 H   0  0  0  0  0  0  0  0  0  0  0  0
   -9.0745   -6.3011  -25.4175 C   0  0  0  0  0  0  0  0  0  0  0  0
   -9.5085   -7.2751  -25.1824 H   0  0  0  0  0  0  0  0  0  0  0  0
   -7.9977   -6.3841  -25.2542 H   0  0  0  0  0  0  0  0  0  0  0  0
   -9.2347   -6.1127  -26.4768 H   0  0  0  0  0  0  0  0  0  0  0  0
   -9.5019   -5.4566  -23.4965 H   0  0  0  0  0  0  0  0  0  0  0  0
   -7.3948   -4.5217  -23.8468 H   0  0  0  0  0  0  0  0  0  0  0  0
   -7.3377   -2.9810  -24.7086 H   0  0  0  0  0  0  0  0  0  0  0  0
   -8.9541   -3.5320  -22.1876 H   0  0  0  0  0  0  0  0  0  0  0  0
   -6.1749   -2.3740  -22.5917 H   0  0  0  0  0  0  0  0  0  0  0  0
   -6.7698   -3.3824  -21.2629 H   0  0  0  0  0  0  0  0  0  0  0  0
  -10.5822   -1.6139  -22.8121 C   0  0  0  0  0  0  0  0  0  0  0  0
  -11.1898   -2.5300  -21.9445 C   0  0  0  0  0  0  0  0  0  0  0  0
  -12.5683   -2.5799  -21.8430 C   0  0  0  0  0  0  0  0  0  0  0  0
  -13.3072   -3.7131  -20.7418 Cl  0  0  0  0  0  0  0  0  0  0  0  0
  -13.3858   -1.7334  -22.5946 C   0  0  0  0  0  0  0  0  0  0  0  0
  -12.7982   -0.7851  -23.4105 C   0  0  0  0  0  0  0  0  0  0  0  0
  -11.4083   -0.7047  -23.4909 C   0  0  0  0  0  0  0  0  0  0  0  0
  -10.8319    0.4553  -24.2437 C   0  0  0  0  0  0  0  0  0  0  0  0
  -11.5396    1.3426  -24.7080 O   0  0  0  0  0  0  0  0  0  0  0  0
  -13.3777   -0.0617  -23.9810 H   0  0  0  0  0  0  0  0  0  0  0  0
  -14.4623   -1.8109  -22.5036 H   0  0  0  0  0  0  0  0  0  0  0  0
  -10.5930   -3.1767  -21.3111 H   0  0  0  0  0  0  0  0  0  0  0  0
   -8.9080   -1.4389  -25.0201 H   0  0  0  0  0  0  0  0  0  0  0  0
   -7.6461   -0.4897  -24.1681 H   0  0  0  0  0  0  0  0  0  0  0  0
   -9.5829    2.3409  -25.0714 H   0  0  0  0  0  0  0  0  0  0  0  0
   -8.1713    1.4044  -25.6870 H   0  0  0  0  0  0  0  0  0  0  0  0
   -9.3243    2.7833  -22.5211 H   0  0  0  0  0  0  0  0  0  0  0  0
   -6.7984    2.4540  -21.4174 H   0  0  0  0  0  0  0  0  0  0  0  0
   -6.7968    4.1021  -22.0274 H   0  0  0  0  0  0  0  0  0  0  0  0
   -8.0154    3.6021  -20.8285 H   0  0  0  0  0  0  0  0  0  0  0  0
  1  2  1  0
  2  3  1  0
  3  4  2  0
  3  5  1  0
  5  6  1  0
  6  7  1  0
  8  7  1  6
  8  9  1  0
  9 10  2  0
  9 11  1  0
 11 12  1  0
 12 13  2  0
 13 14  1  0
 14 15  2  0
 15 16  1  0
 16 17  2  0
 17 18  1  0
 18 19  2  0
 19 20  1  0
 20 21  2  0
 20 22  1  0
 19 23  1  0
 18 24  1  0
 17 25  1  0
 15 26  1  0
 13 27  1  0
 11 28  1  0
 28 29  1  0
 29 30  1  0
 30 31  1  0
 31 32  1  0
 32 33  1  0
 33 34  1  0
 33 35  1  0
 33 36  1  0
 32 37  1  0
 37 38  1  0
 37 39  1  0
 37 40  1  0
 32 41  1  0
 30 42  1  0
 30 43  1  0
 29 44  1  1
 28 45  1  0
 28 46  1  0
  8 47  1  0
 47 48  2  0
 48 49  1  0
 49 50  1  0
 49 51  2  0
 51 52  1  0
 52 53  2  0
 53 54  1  0
 54 55  2  0
 52 56  1  0
 51 57  1  0
 48 58  1  0
  7 59  1  0
  7 60  1  0
  5 61  1  0
  5 62  1  0
  2 63  1  0
  1 64  1  0
  1 65  1  0
  1 66  1  0
 54  6  1  0
 29  8  1  0
 53 47  1  0
 21 12  1  0
 21 16  1  0
M  END
>  <cnnaffinities>  (93) 
[6.4844, 6.3911, 6.35691, 6.38122, 6.61478]

>  <score>  (93) 
6.4844

>  <index>  (93) 
96

>  <Smiles>  (93) 
C(N(C(=O)C(N1C([C@@]2(C(=O)N(c3c(nc(c4c(c(c(c(c34)[H])[H])[H])[H])[H])[H])C([C@@]2(C(OC(C([H])([H])[H])(C([H])([H])[H])[H])([H])[H])[H])([H])[H])c2c(c(Cl)c(c(c2C1=O)[H])[H])[H])([H])[H])([H])[H])[H])([H])([H])[H]

>  <h>  (93) 
<NA>

>  <Training>  (93) 
True

>  <Success>  (93) 
True

>  <enamine_searched>  (93) 
False

>  <enamine_id>  (93) 
nan

$$$$

     RDKit          3D

 40 43  0  0  0  0  0  0  0  0999 V2000
  -12.7087   -3.6826  -21.1475 C   0  0  0  0  0  0  0  0  0  0  0  0
  -11.5945   -2.7474  -21.6447 C   0  0  2  0  0  0  0  0  0  0  0  0
  -12.0273   -2.2348  -23.0131 C   0  0  0  0  0  0  0  0  0  0  0  0
  -11.1124   -1.3050  -23.5427 O   0  0  0  0  0  0  0  0  0  0  0  0
   -9.8437   -1.8680  -23.7547 C   0  0  0  0  0  0  0  0  0  0  0  0
   -9.1890   -2.3651  -22.4605 C   0  0  1  0  0  0  0  0  0  0  0  0
  -10.1786   -3.3320  -21.7552 C   0  0  0  0  0  0  0  0  0  0  0  0
  -10.1906   -4.2652  -22.3419 H   0  0  0  0  0  0  0  0  0  0  0  0
   -9.7564   -3.5865  -20.7775 H   0  0  0  0  0  0  0  0  0  0  0  0
   -7.9285   -3.0086  -22.7611 N   0  0  0  0  0  0  0  0  0  0  0  0
   -6.8761   -2.5905  -22.0030 C   0  0  0  0  0  0  0  0  0  0  0  0
   -5.7454   -3.0220  -21.9900 O   0  0  0  0  0  0  0  0  0  0  0  0
   -7.3612   -1.5127  -21.2409 N   0  0  0  0  0  0  0  0  0  0  0  0
   -6.6009   -0.8762  -20.2199 C   0  0  0  0  0  0  0  0  0  0  0  0
   -6.9350   -1.0678  -18.9065 C   0  0  0  0  0  0  0  0  0  0  0  0
   -6.2515   -0.5514  -17.8592 N   0  0  0  0  0  0  0  0  0  0  0  0
   -5.2068    0.1889  -18.1268 C   0  0  0  0  0  0  0  0  0  0  0  0
   -4.7605    0.4809  -19.4405 C   0  0  0  0  0  0  0  0  0  0  0  0
   -3.6394    1.3220  -19.6511 C   0  0  0  0  0  0  0  0  0  0  0  0
   -3.2489    1.6345  -20.9220 C   0  0  0  0  0  0  0  0  0  0  0  0
   -3.9623    1.1194  -22.0259 C   0  0  0  0  0  0  0  0  0  0  0  0
   -5.0474    0.2976  -21.8479 C   0  0  0  0  0  0  0  0  0  0  0  0
   -5.4729   -0.0536  -20.5359 C   0  0  0  0  0  0  0  0  0  0  0  0
   -5.5879   -0.0762  -22.7115 H   0  0  0  0  0  0  0  0  0  0  0  0
   -3.6549    1.3905  -23.0315 H   0  0  0  0  0  0  0  0  0  0  0  0
   -2.4051    2.2974  -21.0868 H   0  0  0  0  0  0  0  0  0  0  0  0
   -3.1281    1.7213  -18.7801 H   0  0  0  0  0  0  0  0  0  0  0  0
   -4.6623    0.6072  -17.2805 H   0  0  0  0  0  0  0  0  0  0  0  0
   -7.7953   -1.6790  -18.6464 H   0  0  0  0  0  0  0  0  0  0  0  0
   -8.7002   -1.2326  -21.5337 C   0  0  0  0  0  0  0  0  0  0  0  0
   -9.3171   -0.2828  -21.1235 O   0  0  0  0  0  0  0  0  0  0  0  0
   -7.8824   -3.8611  -23.2970 H   0  0  0  0  0  0  0  0  0  0  0  0
   -9.2271   -1.1013  -24.2221 H   0  0  0  0  0  0  0  0  0  0  0  0
   -9.8915   -2.7313  -24.4425 H   0  0  0  0  0  0  0  0  0  0  0  0
  -12.9836   -1.7052  -22.9195 H   0  0  0  0  0  0  0  0  0  0  0  0
  -12.1505   -3.1166  -23.6867 H   0  0  0  0  0  0  0  0  0  0  0  0
  -11.5269   -1.8983  -20.9660 H   0  0  0  0  0  0  0  0  0  0  0  0
  -12.4648   -4.2486  -20.2422 H   0  0  0  0  0  0  0  0  0  0  0  0
  -12.9661   -4.4102  -21.9286 H   0  0  0  0  0  0  0  0  0  0  0  0
  -13.5983   -3.0808  -20.9141 H   0  0  0  0  0  0  0  0  0  0  0  0
  1  2  1  0
  2  3  1  0
  3  4  1  0
  4  5  1  0
  5  6  1  0
  6  7  1  0
  7  8  1  0
  7  9  1  0
  6 10  1  6
 10 11  1  0
 11 12  2  0
 11 13  1  0
 13 14  1  0
 14 15  2  0
 15 16  1  0
 16 17  2  0
 17 18  1  0
 18 19  2  0
 19 20  1  0
 20 21  2  0
 21 22  1  0
 22 23  2  0
 22 24  1  0
 21 25  1  0
 20 26  1  0
 19 27  1  0
 17 28  1  0
 15 29  1  0
 13 30  1  0
 30 31  2  0
 10 32  1  0
  5 33  1  0
  5 34  1  0
  3 35  1  0
  3 36  1  0
  2 37  1  1
  1 38  1  0
  1 39  1  0
  1 40  1  0
  7  2  1  0
 23 14  1  0
 30  6  1  0
 23 18  1  0
M  END
>  <cnnaffinities>  (94) 
[5.42281, 5.31038]

>  <score>  (94) 
5.42281

>  <index>  (94) 
97

>  <Smiles>  (94) 
C([C@@]1(C(OC([C@@]2(C1([H])[H])N(C(=O)N(c1c(nc(c3c(c(c(c(c13)[H])[H])[H])[H])[H])[H])C2=O)[H])([H])[H])([H])[H])[H])([H])([H])[H]

>  <h>  (94) 
<NA>

>  <Training>  (94) 
True

>  <Success>  (94) 
True

>  <enamine_searched>  (94) 
False

>  <enamine_id>  (94) 
nan

$$$$
