
     RDKit          3D

 66 71  0  0  0  0  0  0  0  0999 V2000
   -7.8266   -6.0304  -26.6719 C   0  0  0  0  0  0  0  0  0  0  0  0
   -8.0027   -4.6154  -26.9489 N   0  0  0  0  0  0  0  0  0  0  0  0
   -7.0771   -3.7071  -26.5679 C   0  0  0  0  0  0  0  0  0  0  0  0
   -6.0385   -4.0081  -25.9881 O   0  0  0  0  0  0  0  0  0  0  0  0
   -7.4417   -2.2423  -26.8183 C   0  0  0  0  0  0  0  0  0  0  0  0
   -8.3609   -1.7654  -25.7919 N   0  0  0  0  0  0  0  0  0  0  0  0
   -7.8372   -1.3127  -24.5089 C   0  0  0  0  0  0  0  0  0  0  0  0
   -8.7456   -1.5815  -23.2647 C   0  0  2  0  0  0  0  0  0  0  0  0
   -8.2430   -0.6081  -22.1816 C   0  0  0  0  0  0  0  0  0  0  0  0
   -8.4634    0.5804  -22.1024 O   0  0  0  0  0  0  0  0  0  0  0  0
   -7.3823   -1.3068  -21.3525 N   0  0  0  0  0  0  0  0  0  0  0  0
   -6.6282   -0.7069  -20.3129 C   0  0  0  0  0  0  0  0  0  0  0  0
   -6.9664   -0.9455  -19.0044 C   0  0  0  0  0  0  0  0  0  0  0  0
   -6.3105   -0.4419  -17.9316 N   0  0  0  0  0  0  0  0  0  0  0  0
   -5.2505    0.2921  -18.1641 C   0  0  0  0  0  0  0  0  0  0  0  0
   -4.7586    0.5868  -19.4664 C   0  0  0  0  0  0  0  0  0  0  0  0
   -3.5914    1.3731  -19.6601 C   0  0  0  0  0  0  0  0  0  0  0  0
   -3.1302    1.6295  -20.9217 C   0  0  0  0  0  0  0  0  0  0  0  0
   -3.8084    1.1063  -22.0454 C   0  0  0  0  0  0  0  0  0  0  0  0
   -4.9397    0.3454  -21.8829 C   0  0  0  0  0  0  0  0  0  0  0  0
   -5.4553    0.0730  -20.5845 C   0  0  0  0  0  0  0  0  0  0  0  0
   -5.4467   -0.0586  -22.7545 H   0  0  0  0  0  0  0  0  0  0  0  0
   -3.4315    1.3133  -23.0429 H   0  0  0  0  0  0  0  0  0  0  0  0
   -2.2469    2.2452  -21.0696 H   0  0  0  0  0  0  0  0  0  0  0  0
   -3.0841    1.7742  -18.7866 H   0  0  0  0  0  0  0  0  0  0  0  0
   -4.7180    0.6840  -17.2973 H   0  0  0  0  0  0  0  0  0  0  0  0
   -7.8330   -1.5671  -18.7820 H   0  0  0  0  0  0  0  0  0  0  0  0
   -7.3111   -2.7311  -21.6221 C   0  0  0  0  0  0  0  0  0  0  0  0
   -8.5194   -2.9495  -22.5425 C   0  0  2  0  0  0  0  0  0  0  0  0
   -8.4673   -4.1479  -23.4922 C   0  0  0  0  0  0  0  0  0  0  0  0
   -8.3771   -5.4453  -22.8411 N   0  0  0  0  0  0  0  0  0  0  0  0
   -7.1784   -5.9510  -22.4111 C   0  0  0  0  0  0  0  0  0  0  0  0
   -5.9629   -5.6661  -23.0625 C   0  0  0  0  0  0  0  0  0  0  0  0
   -4.8194   -6.1370  -22.4513 C   0  0  0  0  0  0  0  0  0  0  0  0
   -4.8365   -6.8432  -21.3122 N   0  0  0  0  0  0  0  0  0  0  0  0
   -6.0448   -7.1047  -20.8350 C   0  0  0  0  0  0  0  0  0  0  0  0
   -7.2212   -6.7491  -21.3341 N   0  0  0  0  0  0  0  0  0  0  0  0
   -6.0779   -7.6806  -19.9113 H   0  0  0  0  0  0  0  0  0  0  0  0
   -3.8305   -5.9316  -22.8698 H   0  0  0  0  0  0  0  0  0  0  0  0
   -5.9378   -5.1096  -24.0012 H   0  0  0  0  0  0  0  0  0  0  0  0
   -9.1421   -5.6588  -22.2163 H   0  0  0  0  0  0  0  0  0  0  0  0
   -9.3849   -4.1376  -24.0957 H   0  0  0  0  0  0  0  0  0  0  0  0
   -7.6205   -4.0367  -24.1659 H   0  0  0  0  0  0  0  0  0  0  0  0
   -9.3920   -3.0876  -21.8839 H   0  0  0  0  0  0  0  0  0  0  0  0
   -7.3807   -3.2791  -20.6808 H   0  0  0  0  0  0  0  0  0  0  0  0
   -6.3479   -2.9980  -22.0863 H   0  0  0  0  0  0  0  0  0  0  0  0
  -10.2016   -1.4130  -23.6351 C   0  0  0  0  0  0  0  0  0  0  0  0
  -11.1770   -1.3335  -22.6268 C   0  0  0  0  0  0  0  0  0  0  0  0
  -12.5244   -1.3364  -22.9661 C   0  0  0  0  0  0  0  0  0  0  0  0
  -13.7713   -1.3279  -21.7470 Cl  0  0  0  0  0  0  0  0  0  0  0  0
  -12.9344   -1.4338  -24.2954 C   0  0  0  0  0  0  0  0  0  0  0  0
  -11.9799   -1.5482  -25.2821 C   0  0  0  0  0  0  0  0  0  0  0  0
  -10.6268   -1.5634  -24.9595 C   0  0  0  0  0  0  0  0  0  0  0  0
   -9.6816   -1.9360  -26.0458 C   0  0  0  0  0  0  0  0  0  0  0  0
  -10.0816   -2.4354  -27.1019 O   0  0  0  0  0  0  0  0  0  0  0  0
  -12.2494   -1.6858  -26.3281 H   0  0  0  0  0  0  0  0  0  0  0  0
  -13.9958   -1.4861  -24.5227 H   0  0  0  0  0  0  0  0  0  0  0  0
  -10.8796   -1.3031  -21.5835 H   0  0  0  0  0  0  0  0  0  0  0  0
   -7.6759   -0.2297  -24.5560 H   0  0  0  0  0  0  0  0  0  0  0  0
   -6.8639   -1.8056  -24.3795 H   0  0  0  0  0  0  0  0  0  0  0  0
   -6.5276   -1.6469  -26.8281 H   0  0  0  0  0  0  0  0  0  0  0  0
   -7.9503   -2.1476  -27.7769 H   0  0  0  0  0  0  0  0  0  0  0  0
   -8.8926   -4.2750  -27.2877 H   0  0  0  0  0  0  0  0  0  0  0  0
   -7.5973   -6.1959  -25.6092 H   0  0  0  0  0  0  0  0  0  0  0  0
   -8.7490   -6.5616  -26.9184 H   0  0  0  0  0  0  0  0  0  0  0  0
   -7.0143   -6.4484  -27.2757 H   0  0  0  0  0  0  0  0  0  0  0  0
  1  2  1  0
  2  3  1  0
  3  4  2  0
  3  5  1  0
  5  6  1  0
  6  7  1  0
  8  7  1  6
  8  9  1  0
  9 10  2  0
  9 11  1  0
 11 12  1  0
 12 13  2  0
 13 14  1  0
 14 15  2  0
 15 16  1  0
 16 17  2  0
 17 18  1  0
 18 19  2  0
 19 20  1  0
 20 21  2  0
 20 22  1  0
 19 23  1  0
 18 24  1  0
 17 25  1  0
 15 26  1  0
 13 27  1  0
 11 28  1  0
 28 29  1  0
 29 30  1  0
 30 31  1  0
 31 32  1  0
 32 33  2  0
 33 34  1  0
 34 35  2  0
 35 36  1  0
 36 37  2  0
 36 38  1  0
 34 39  1  0
 33 40  1  0
 31 41  1  0
 30 42  1  0
 30 43  1  0
 29 44  1  1
 28 45  1  0
 28 46  1  0
  8 47  1  0
 47 48  2  0
 48 49  1  0
 49 50  1  0
 49 51  2  0
 51 52  1  0
 52 53  2  0
 53 54  1  0
 54 55  2  0
 52 56  1  0
 51 57  1  0
 48 58  1  0
  7 59  1  0
  7 60  1  0
  5 61  1  0
  5 62  1  0
  2 63  1  0
  1 64  1  0
  1 65  1  0
  1 66  1  0
 54  6  1  0
 29  8  1  0
 37 32  1  0
 53 47  1  0
 21 12  1  0
 21 16  1  0
M  END
>  <cnnaffinities>  (1) 
[6.4319]

>  <score>  (1) 
6.4319

>  <index>  (1) 
0

>  <Smiles>  (1) 
C(N(C(=O)C(N1C([C@@]2(C(=O)N(c3c(nc(c4c(c(c(c(c34)[H])[H])[H])[H])[H])[H])C([C@@]2(C(N(c2c(c(nc(n2)[H])[H])[H])[H])([H])[H])[H])([H])[H])c2c(c(Cl)c(c(c2C1=O)[H])[H])[H])([H])[H])([H])[H])[H])([H])([H])[H]

>  <h>  (1) 
<NA>

>  <Training>  (1) 
True

>  <Success>  (1) 
True

>  <enamine_searched>  (1) 
False

>  <enamine_id>  (1) 
nan

$$$$

     RDKit          3D

 68 73  0  0  0  0  0  0  0  0999 V2000
   -7.5624   -5.9372  -26.7875 C   0  0  0  0  0  0  0  0  0  0  0  0
   -7.8369   -4.5293  -27.0129 N   0  0  0  0  0  0  0  0  0  0  0  0
   -6.9626   -3.5816  -26.6013 C   0  0  0  0  0  0  0  0  0  0  0  0
   -5.9040   -3.8407  -26.0371 O   0  0  0  0  0  0  0  0  0  0  0  0
   -7.4248   -2.1356  -26.8182 C   0  0  0  0  0  0  0  0  0  0  0  0
   -8.3596   -1.7008  -25.7858 N   0  0  0  0  0  0  0  0  0  0  0  0
   -7.8470   -1.2170  -24.5115 C   0  0  0  0  0  0  0  0  0  0  0  0
   -8.7416   -1.5428  -23.2728 C   0  0  2  0  0  0  0  0  0  0  0  0
   -8.2526   -0.5905  -22.1648 C   0  0  0  0  0  0  0  0  0  0  0  0
   -8.4996    0.5869  -22.0326 O   0  0  0  0  0  0  0  0  0  0  0  0
   -7.3798   -1.2985  -21.3538 N   0  0  0  0  0  0  0  0  0  0  0  0
   -6.6217   -0.7050  -20.3138 C   0  0  0  0  0  0  0  0  0  0  0  0
   -6.9585   -0.9545  -19.0086 C   0  0  0  0  0  0  0  0  0  0  0  0
   -6.3054   -0.4510  -17.9344 N   0  0  0  0  0  0  0  0  0  0  0  0
   -5.2505    0.2889  -18.1688 C   0  0  0  0  0  0  0  0  0  0  0  0
   -4.7553    0.5890  -19.4678 C   0  0  0  0  0  0  0  0  0  0  0  0
   -3.5905    1.3772  -19.6607 C   0  0  0  0  0  0  0  0  0  0  0  0
   -3.1319    1.6373  -20.9207 C   0  0  0  0  0  0  0  0  0  0  0  0
   -3.8069    1.1151  -22.0461 C   0  0  0  0  0  0  0  0  0  0  0  0
   -4.9350    0.3510  -21.8843 C   0  0  0  0  0  0  0  0  0  0  0  0
   -5.4500    0.0763  -20.5873 C   0  0  0  0  0  0  0  0  0  0  0  0
   -5.4412   -0.0527  -22.7562 H   0  0  0  0  0  0  0  0  0  0  0  0
   -3.4320    1.3265  -23.0425 H   0  0  0  0  0  0  0  0  0  0  0  0
   -2.2520    2.2560  -21.0670 H   0  0  0  0  0  0  0  0  0  0  0  0
   -3.0858    1.7778  -18.7858 H   0  0  0  0  0  0  0  0  0  0  0  0
   -4.7254    0.6778  -17.2985 H   0  0  0  0  0  0  0  0  0  0  0  0
   -7.8217   -1.5843  -18.7939 H   0  0  0  0  0  0  0  0  0  0  0  0
   -7.2681   -2.7101  -21.6673 C   0  0  0  0  0  0  0  0  0  0  0  0
   -8.4674   -2.9253  -22.5944 C   0  0  2  0  0  0  0  0  0  0  0  0
   -8.3498   -4.0900  -23.5725 C   0  0  0  0  0  0  0  0  0  0  0  0
   -8.2720   -5.4047  -22.9719 N   0  0  0  0  0  0  0  0  0  0  0  0
   -7.0517   -5.9352  -22.5620 C   0  0  0  0  0  0  0  0  0  0  0  0
   -6.8659   -6.8912  -21.5297 C   0  0  0  0  0  0  0  0  0  0  0  0
   -5.6045   -7.2880  -21.4601 N   0  0  0  0  0  0  0  0  0  0  0  0
   -4.9610   -6.6238  -22.4259 N   0  0  0  0  0  0  0  0  0  0  0  0
   -3.5786   -6.9676  -22.7041 C   0  0  0  0  0  0  0  0  0  0  0  0
   -3.3545   -7.8634  -22.1199 H   0  0  0  0  0  0  0  0  0  0  0  0
   -3.4578   -7.1894  -23.7695 H   0  0  0  0  0  0  0  0  0  0  0  0
   -2.8841   -6.1702  -22.4153 H   0  0  0  0  0  0  0  0  0  0  0  0
   -5.7927   -5.7844  -23.1208 C   0  0  0  0  0  0  0  0  0  0  0  0
   -5.4628   -5.1794  -23.9697 H   0  0  0  0  0  0  0  0  0  0  0  0
   -7.6127   -7.3318  -20.8741 H   0  0  0  0  0  0  0  0  0  0  0  0
   -9.0399   -5.6123  -22.3488 H   0  0  0  0  0  0  0  0  0  0  0  0
   -9.2313   -4.0642  -24.2244 H   0  0  0  0  0  0  0  0  0  0  0  0
   -7.4676   -3.9579  -24.1969 H   0  0  0  0  0  0  0  0  0  0  0  0
   -9.3430   -3.1163  -21.9529 H   0  0  0  0  0  0  0  0  0  0  0  0
   -6.3054   -2.9522  -22.1522 H   0  0  0  0  0  0  0  0  0  0  0  0
   -7.3245   -3.2953  -20.7459 H   0  0  0  0  0  0  0  0  0  0  0  0
  -10.2095   -1.4133  -23.6256 C   0  0  0  0  0  0  0  0  0  0  0  0
  -11.1917   -1.3433  -22.6237 C   0  0  0  0  0  0  0  0  0  0  0  0
  -12.5349   -1.3574  -22.9634 C   0  0  0  0  0  0  0  0  0  0  0  0
  -13.7813   -1.3320  -21.7535 Cl  0  0  0  0  0  0  0  0  0  0  0  0
  -12.9417   -1.4663  -24.2898 C   0  0  0  0  0  0  0  0  0  0  0  0
  -11.9810   -1.5584  -25.2733 C   0  0  0  0  0  0  0  0  0  0  0  0
  -10.6326   -1.5641  -24.9482 C   0  0  0  0  0  0  0  0  0  0  0  0
   -9.6788   -1.9032  -26.0403 C   0  0  0  0  0  0  0  0  0  0  0  0
  -10.0609   -2.4035  -27.0992 O   0  0  0  0  0  0  0  0  0  0  0  0
  -12.2340   -1.6812  -26.3198 H   0  0  0  0  0  0  0  0  0  0  0  0
  -13.9988   -1.5328  -24.5090 H   0  0  0  0  0  0  0  0  0  0  0  0
  -10.8946   -1.3094  -21.5819 H   0  0  0  0  0  0  0  0  0  0  0  0
   -7.7418   -0.1242  -24.5503 H   0  0  0  0  0  0  0  0  0  0  0  0
   -6.8510   -1.6687  -24.3795 H   0  0  0  0  0  0  0  0  0  0  0  0
   -6.5458   -1.4901  -26.8486 H   0  0  0  0  0  0  0  0  0  0  0  0
   -7.9524   -2.0668  -27.7685 H   0  0  0  0  0  0  0  0  0  0  0  0
   -8.7517   -4.2339  -27.3246 H   0  0  0  0  0  0  0  0  0  0  0  0
   -7.3050   -6.1224  -25.7359 H   0  0  0  0  0  0  0  0  0  0  0  0
   -8.4517   -6.5151  -27.0389 H   0  0  0  0  0  0  0  0  0  0  0  0
   -6.7372   -6.2846  -27.4164 H   0  0  0  0  0  0  0  0  0  0  0  0
  1  2  1  0
  2  3  1  0
  3  4  2  0
  3  5  1  0
  5  6  1  0
  6  7  1  0
  8  7  1  6
  8  9  1  0
  9 10  2  0
  9 11  1  0
 11 12  1  0
 12 13  2  0
 13 14  1  0
 14 15  2  0
 15 16  1  0
 16 17  2  0
 17 18  1  0
 18 19  2  0
 19 20  1  0
 20 21  2  0
 20 22  1  0
 19 23  1  0
 18 24  1  0
 17 25  1  0
 15 26  1  0
 13 27  1  0
 11 28  1  0
 28 29  1  0
 29 30  1  0
 30 31  1  0
 31 32  1  0
 32 33  1  0
 33 34  2  0
 34 35  1  0
 35 36  1  0
 36 37  1  0
 36 38  1  0
 36 39  1  0
 35 40  1  0
 40 41  1  0
 33 42  1  0
 31 43  1  0
 30 44  1  0
 30 45  1  0
 29 46  1  1
 28 47  1  0
 28 48  1  0
  8 49  1  0
 49 50  2  0
 50 51  1  0
 51 52  1  0
 51 53  2  0
 53 54  1  0
 54 55  2  0
 55 56  1  0
 56 57  2  0
 54 58  1  0
 53 59  1  0
 50 60  1  0
  7 61  1  0
  7 62  1  0
  5 63  1  0
  5 64  1  0
  2 65  1  0
  1 66  1  0
  1 67  1  0
  1 68  1  0
 56  6  1  0
 29  8  1  0
 40 32  2  0
 55 49  1  0
 21 12  1  0
 21 16  1  0
M  END
>  <cnnaffinities>  (2) 
[6.67767, 6.82025]

>  <score>  (2) 
6.67767

>  <index>  (2) 
1

>  <Smiles>  (2) 
C(N(C(=O)C(N1C([C@@]2(C(=O)N(c3c(nc(c4c(c(c(c(c34)[H])[H])[H])[H])[H])[H])C([C@@]2(C(N(c2c(nn(C([H])([H])[H])c2[H])[H])[H])([H])[H])[H])([H])[H])c2c(c(Cl)c(c(c2C1=O)[H])[H])[H])([H])[H])([H])[H])[H])([H])([H])[H]

>  <h>  (2) 
<NA>

>  <Training>  (2) 
True

>  <Success>  (2) 
True

>  <enamine_searched>  (2) 
False

>  <enamine_id>  (2) 
nan

$$$$

     RDKit          3D

 60 65  0  0  0  0  0  0  0  0999 V2000
   -5.9884   -7.4663  -26.6800 C   0  0  0  0  0  0  0  0  0  0  0  0
   -6.4404   -6.0360  -26.6679 C   0  0  0  0  0  0  0  0  0  0  0  0
   -5.6134   -4.9767  -26.3011 C   0  0  0  0  0  0  0  0  0  0  0  0
   -6.0168   -3.7057  -26.3341 N   0  0  0  0  0  0  0  0  0  0  0  0
   -7.2544   -3.4777  -26.7688 C   0  0  0  0  0  0  0  0  0  0  0  0
   -7.7145   -2.0491  -26.8682 C   0  0  0  0  0  0  0  0  0  0  0  0
   -8.5520   -1.7078  -25.7274 N   0  0  0  0  0  0  0  0  0  0  0  0
   -7.9224   -1.2445  -24.4968 C   0  0  0  0  0  0  0  0  0  0  0  0
   -8.7465   -1.5359  -23.2104 C   0  0  2  0  0  0  0  0  0  0  0  0
   -8.1836   -0.5879  -22.1421 C   0  0  0  0  0  0  0  0  0  0  0  0
   -8.3290    0.6148  -22.0751 O   0  0  0  0  0  0  0  0  0  0  0  0
   -7.3931   -1.3157  -21.2833 N   0  0  0  0  0  0  0  0  0  0  0  0
   -6.6160   -0.7344  -20.2590 C   0  0  0  0  0  0  0  0  0  0  0  0
   -6.9344   -0.9902  -18.9529 C   0  0  0  0  0  0  0  0  0  0  0  0
   -6.2687   -0.4857  -17.8909 N   0  0  0  0  0  0  0  0  0  0  0  0
   -5.2190    0.2590  -18.1399 C   0  0  0  0  0  0  0  0  0  0  0  0
   -4.7501    0.5586  -19.4483 C   0  0  0  0  0  0  0  0  0  0  0  0
   -3.6011    1.3615  -19.6531 C   0  0  0  0  0  0  0  0  0  0  0  0
   -3.1593    1.6259  -20.9212 C   0  0  0  0  0  0  0  0  0  0  0  0
   -3.8426    1.0907  -22.0372 C   0  0  0  0  0  0  0  0  0  0  0  0
   -4.9576    0.3139  -21.8665 C   0  0  0  0  0  0  0  0  0  0  0  0
   -5.4556    0.0444  -20.5585 C   0  0  0  0  0  0  0  0  0  0  0  0
   -5.4763   -0.0937  -22.7334 H   0  0  0  0  0  0  0  0  0  0  0  0
   -3.4783    1.3044  -23.0385 H   0  0  0  0  0  0  0  0  0  0  0  0
   -2.2859    2.2514  -21.0762 H   0  0  0  0  0  0  0  0  0  0  0  0
   -3.0872    1.7580  -18.7835 H   0  0  0  0  0  0  0  0  0  0  0  0
   -4.6823    0.6602  -17.2810 H   0  0  0  0  0  0  0  0  0  0  0  0
   -7.7924   -1.6254  -18.7243 H   0  0  0  0  0  0  0  0  0  0  0  0
   -7.3358   -2.7277  -21.5646 C   0  0  0  0  0  0  0  0  0  0  0  0
   -8.4965   -2.9329  -22.5395 C   0  0  2  0  0  0  0  0  0  0  0  0
   -8.3035   -4.1054  -23.4842 C   0  0  0  0  0  0  0  0  0  0  0  0
   -9.1195   -4.1456  -24.2134 H   0  0  0  0  0  0  0  0  0  0  0  0
   -8.2814   -5.0503  -22.9293 H   0  0  0  0  0  0  0  0  0  0  0  0
   -7.3637   -4.0102  -24.0374 H   0  0  0  0  0  0  0  0  0  0  0  0
   -9.3875   -3.1259  -21.9249 H   0  0  0  0  0  0  0  0  0  0  0  0
   -6.3675   -3.0231  -21.9962 H   0  0  0  0  0  0  0  0  0  0  0  0
   -7.4522   -3.2861  -20.6370 H   0  0  0  0  0  0  0  0  0  0  0  0
  -10.2227   -1.3363  -23.4841 C   0  0  0  0  0  0  0  0  0  0  0  0
  -11.1223   -1.0996  -22.4378 C   0  0  0  0  0  0  0  0  0  0  0  0
  -12.4792   -1.0339  -22.6989 C   0  0  0  0  0  0  0  0  0  0  0  0
  -13.3376   -0.8231  -21.6918 F   0  0  0  0  0  0  0  0  0  0  0  0
  -13.0064   -1.1964  -23.9741 C   0  0  0  0  0  0  0  0  0  0  0  0
  -12.1219   -1.4549  -24.9985 C   0  0  0  0  0  0  0  0  0  0  0  0
  -10.7558   -1.5235  -24.7595 C   0  0  0  0  0  0  0  0  0  0  0  0
   -9.8919   -1.8374  -25.9211 C   0  0  0  0  0  0  0  0  0  0  0  0
  -10.3619   -2.1951  -26.9994 O   0  0  0  0  0  0  0  0  0  0  0  0
  -12.4464   -1.6323  -26.0165 H   0  0  0  0  0  0  0  0  0  0  0  0
  -14.0758   -1.1413  -24.1438 H   0  0  0  0  0  0  0  0  0  0  0  0
  -10.7686   -0.9615  -21.4246 H   0  0  0  0  0  0  0  0  0  0  0  0
   -6.9294   -1.7086  -24.4124 H   0  0  0  0  0  0  0  0  0  0  0  0
   -7.7658   -0.1584  -24.5642 H   0  0  0  0  0  0  0  0  0  0  0  0
   -8.3237   -1.8912  -27.7679 H   0  0  0  0  0  0  0  0  0  0  0  0
   -6.8388   -1.3980  -26.8947 H   0  0  0  0  0  0  0  0  0  0  0  0
   -8.1060   -4.5397  -27.0706 C   0  0  0  0  0  0  0  0  0  0  0  0
   -7.7071   -5.8074  -27.0326 N   0  0  0  0  0  0  0  0  0  0  0  0
   -9.1319   -4.3643  -27.3826 H   0  0  0  0  0  0  0  0  0  0  0  0
   -4.5818   -5.1310  -25.9933 H   0  0  0  0  0  0  0  0  0  0  0  0
   -4.9721   -7.5964  -27.0622 H   0  0  0  0  0  0  0  0  0  0  0  0
   -6.0158   -7.9160  -25.6828 H   0  0  0  0  0  0  0  0  0  0  0  0
   -6.6760   -8.0126  -27.3193 H   0  0  0  0  0  0  0  0  0  0  0  0
  1  2  1  0
  2  3  2  0
  3  4  1  0
  4  5  2  0
  5  6  1  0
  6  7  1  0
  7  8  1  0
  9  8  1  6
  9 10  1  0
 10 11  2  0
 10 12  1  0
 12 13  1  0
 13 14  2  0
 14 15  1  0
 15 16  2  0
 16 17  1  0
 17 18  2  0
 18 19  1  0
 19 20  2  0
 20 21  1  0
 21 22  2  0
 21 23  1  0
 20 24  1  0
 19 25  1  0
 18 26  1  0
 16 27  1  0
 14 28  1  0
 12 29  1  0
 29 30  1  0
 30 31  1  0
 31 32  1  0
 31 33  1  0
 31 34  1  0
 30 35  1  1
 29 36  1  0
 29 37  1  0
  9 38  1  0
 38 39  2  0
 39 40  1  0
 40 41  1  0
 40 42  2  0
 42 43  1  0
 43 44  2  0
 44 45  1  0
 45 46  2  0
 43 47  1  0
 42 48  1  0
 39 49  1  0
  8 50  1  0
  8 51  1  0
  6 52  1  0
  6 53  1  0
  5 54  1  0
 54 55  2  0
 54 56  1  0
  3 57  1  0
  1 58  1  0
  1 59  1  0
  1 60  1  0
 55  2  1  0
 45  7  1  0
 30  9  1  0
 44 38  1  0
 22 13  1  0
 22 17  1  0
M  END
>  <cnnaffinities>  (3) 
[6.46556]

>  <score>  (3) 
6.46556

>  <index>  (3) 
2

>  <Smiles>  (3) 
C(c1c(nc(C(N2C([C@@]3(C(=O)N(c4c(nc(c5c(c(c(c(c45)[H])[H])[H])[H])[H])[H])C([C@@]3(C([H])([H])[H])[H])([H])[H])c3c(c(F)c(c(c3C2=O)[H])[H])[H])([H])[H])([H])[H])c(n1)[H])[H])([H])([H])[H]

>  <h>  (3) 
<NA>

>  <Training>  (3) 
True

>  <Success>  (3) 
True

>  <enamine_searched>  (3) 
False

>  <enamine_id>  (3) 
nan

$$$$

     RDKit          3D

 66 70  0  0  0  0  0  0  0  0999 V2000
   -7.7270   -0.2496  -29.8105 C   0  0  0  0  0  0  0  0  0  0  0  0
   -7.9668   -1.2757  -28.8232 N   0  0  0  0  0  0  0  0  0  0  0  0
   -7.1534   -1.3530  -27.7339 C   0  0  0  0  0  0  0  0  0  0  0  0
   -6.1913   -0.6292  -27.5412 O   0  0  0  0  0  0  0  0  0  0  0  0
   -7.5408   -2.4463  -26.7354 C   0  0  0  0  0  0  0  0  0  0  0  0
   -8.4308   -1.9344  -25.7055 N   0  0  0  0  0  0  0  0  0  0  0  0
   -7.9044   -1.2471  -24.5357 C   0  0  0  0  0  0  0  0  0  0  0  0
   -8.7387   -1.5515  -23.2650 C   0  0  2  0  0  0  0  0  0  0  0  0
   -8.2441   -0.5802  -22.1800 C   0  0  0  0  0  0  0  0  0  0  0  0
   -8.4772    0.6054  -22.0957 O   0  0  0  0  0  0  0  0  0  0  0  0
   -7.4181   -1.2799  -21.3187 N   0  0  0  0  0  0  0  0  0  0  0  0
   -6.6418   -0.6844  -20.2898 C   0  0  0  0  0  0  0  0  0  0  0  0
   -6.9563   -0.9480  -18.9819 C   0  0  0  0  0  0  0  0  0  0  0  0
   -6.2856   -0.4573  -17.9137 N   0  0  0  0  0  0  0  0  0  0  0  0
   -5.2323    0.2836  -18.1519 C   0  0  0  0  0  0  0  0  0  0  0  0
   -4.7522    0.5905  -19.4553 C   0  0  0  0  0  0  0  0  0  0  0  0
   -3.5873    1.3781  -19.6563 C   0  0  0  0  0  0  0  0  0  0  0  0
   -3.1364    1.6344  -20.9209 C   0  0  0  0  0  0  0  0  0  0  0  0
   -3.8180    1.1041  -22.0388 C   0  0  0  0  0  0  0  0  0  0  0  0
   -4.9474    0.3428  -21.8692 C   0  0  0  0  0  0  0  0  0  0  0  0
   -5.4607    0.0825  -20.5687 C   0  0  0  0  0  0  0  0  0  0  0  0
   -5.4541   -0.0733  -22.7345 H   0  0  0  0  0  0  0  0  0  0  0  0
   -3.4482    1.3108  -23.0383 H   0  0  0  0  0  0  0  0  0  0  0  0
   -2.2578    2.2545  -21.0753 H   0  0  0  0  0  0  0  0  0  0  0  0
   -3.0746    1.7787  -18.7861 H   0  0  0  0  0  0  0  0  0  0  0  0
   -4.6993    0.6684  -17.2840 H   0  0  0  0  0  0  0  0  0  0  0  0
   -7.8131   -1.5827  -18.7577 H   0  0  0  0  0  0  0  0  0  0  0  0
   -7.3002   -2.6950  -21.6128 C   0  0  0  0  0  0  0  0  0  0  0  0
   -8.4379   -2.9411  -22.6097 C   0  0  2  0  0  0  0  0  0  0  0  0
   -8.1769   -4.0817  -23.5858 C   0  0  0  0  0  0  0  0  0  0  0  0
   -7.7702   -5.2371  -22.8827 O   0  0  0  0  0  0  0  0  0  0  0  0
   -7.4708   -6.3179  -23.7561 C   0  0  0  0  0  0  0  0  0  0  0  0
   -6.5480   -7.2549  -22.9968 C   0  0  0  0  0  0  0  0  0  0  0  0
   -5.5730   -6.7886  -22.8264 H   0  0  0  0  0  0  0  0  0  0  0  0
   -6.9956   -7.5116  -22.0306 H   0  0  0  0  0  0  0  0  0  0  0  0
   -6.3750   -8.1726  -23.5649 H   0  0  0  0  0  0  0  0  0  0  0  0
   -8.7437   -7.0116  -24.2363 C   0  0  0  0  0  0  0  0  0  0  0  0
   -9.0739   -7.7643  -23.5087 H   0  0  0  0  0  0  0  0  0  0  0  0
   -8.5661   -7.5082  -25.1940 H   0  0  0  0  0  0  0  0  0  0  0  0
   -9.5309   -6.2703  -24.3990 H   0  0  0  0  0  0  0  0  0  0  0  0
   -6.9274   -5.9235  -24.6328 H   0  0  0  0  0  0  0  0  0  0  0  0
   -9.0951   -4.2642  -24.1632 H   0  0  0  0  0  0  0  0  0  0  0  0
   -7.4025   -3.8093  -24.3146 H   0  0  0  0  0  0  0  0  0  0  0  0
   -9.3314   -3.2147  -22.0320 H   0  0  0  0  0  0  0  0  0  0  0  0
   -7.4323   -3.2764  -20.6990 H   0  0  0  0  0  0  0  0  0  0  0  0
   -6.3069   -2.9409  -22.0210 H   0  0  0  0  0  0  0  0  0  0  0  0
  -10.2100   -1.3941  -23.5981 C   0  0  0  0  0  0  0  0  0  0  0  0
  -11.1696   -1.3191  -22.5778 C   0  0  0  0  0  0  0  0  0  0  0  0
  -12.5172   -1.3108  -22.9069 C   0  0  0  0  0  0  0  0  0  0  0  0
  -13.7421   -1.3407  -21.6778 Cl  0  0  0  0  0  0  0  0  0  0  0  0
  -12.9574   -1.3939  -24.2258 C   0  0  0  0  0  0  0  0  0  0  0  0
  -12.0141   -1.4855  -25.2226 C   0  0  0  0  0  0  0  0  0  0  0  0
  -10.6616   -1.4958  -24.9185 C   0  0  0  0  0  0  0  0  0  0  0  0
   -9.7390   -1.7957  -26.0452 C   0  0  0  0  0  0  0  0  0  0  0  0
  -10.1456   -1.9688  -27.1954 O   0  0  0  0  0  0  0  0  0  0  0  0
  -12.2743   -1.6158  -26.2648 H   0  0  0  0  0  0  0  0  0  0  0  0
  -14.0231   -1.4456  -24.4238 H   0  0  0  0  0  0  0  0  0  0  0  0
  -10.8634   -1.3205  -21.5340 H   0  0  0  0  0  0  0  0  0  0  0  0
   -6.8583   -1.5465  -24.3844 H   0  0  0  0  0  0  0  0  0  0  0  0
   -7.9299   -0.1579  -24.6860 H   0  0  0  0  0  0  0  0  0  0  0  0
   -8.0642   -3.2603  -27.2478 H   0  0  0  0  0  0  0  0  0  0  0  0
   -6.6236   -2.8302  -26.2753 H   0  0  0  0  0  0  0  0  0  0  0  0
   -8.9194   -1.5997  -28.6850 H   0  0  0  0  0  0  0  0  0  0  0  0
   -6.6936   -0.3214  -30.1549 H   0  0  0  0  0  0  0  0  0  0  0  0
   -7.8815    0.7584  -29.4083 H   0  0  0  0  0  0  0  0  0  0  0  0
   -8.3959   -0.4144  -30.6583 H   0  0  0  0  0  0  0  0  0  0  0  0
  1  2  1  0
  2  3  1  0
  3  4  2  0
  3  5  1  0
  5  6  1  0
  6  7  1  0
  8  7  1  6
  8  9  1  0
  9 10  2  0
  9 11  1  0
 11 12  1  0
 12 13  2  0
 13 14  1  0
 14 15  2  0
 15 16  1  0
 16 17  2  0
 17 18  1  0
 18 19  2  0
 19 20  1  0
 20 21  2  0
 20 22  1  0
 19 23  1  0
 18 24  1  0
 17 25  1  0
 15 26  1  0
 13 27  1  0
 11 28  1  0
 28 29  1  0
 29 30  1  0
 30 31  1  0
 31 32  1  0
 32 33  1  0
 33 34  1  0
 33 35  1  0
 33 36  1  0
 32 37  1  0
 37 38  1  0
 37 39  1  0
 37 40  1  0
 32 41  1  0
 30 42  1  0
 30 43  1  0
 29 44  1  1
 28 45  1  0
 28 46  1  0
  8 47  1  0
 47 48  2  0
 48 49  1  0
 49 50  1  0
 49 51  2  0
 51 52  1  0
 52 53  2  0
 53 54  1  0
 54 55  2  0
 52 56  1  0
 51 57  1  0
 48 58  1  0
  7 59  1  0
  7 60  1  0
  5 61  1  0
  5 62  1  0
  2 63  1  0
  1 64  1  0
  1 65  1  0
  1 66  1  0
 54  6  1  0
 29  8  1  0
 53 47  1  0
 21 12  1  0
 21 16  1  0
M  END
>  <cnnaffinities>  (4) 
[6.49243, 6.53447, 6.54002, 6.6184, 6.61225]

>  <score>  (4) 
6.49243

>  <index>  (4) 
3

>  <Smiles>  (4) 
C(N(C(=O)C(N1C([C@@]2(C(=O)N(c3c(nc(c4c(c(c(c(c34)[H])[H])[H])[H])[H])[H])C([C@@]2(C(OC(C([H])([H])[H])(C([H])([H])[H])[H])([H])[H])[H])([H])[H])c2c(c(Cl)c(c(c2C1=O)[H])[H])[H])([H])[H])([H])[H])[H])([H])([H])[H]

>  <h>  (4) 
<NA>

>  <Training>  (4) 
True

>  <Success>  (4) 
True

>  <enamine_searched>  (4) 
False

>  <enamine_id>  (4) 
nan

$$$$

     RDKit          3D

 59 64  0  0  0  0  0  0  0  0999 V2000
   -8.2657   -4.1067  -23.5406 C   0  0  0  0  0  0  0  0  0  0  0  0
   -8.5141   -2.9569  -22.5649 C   0  0  1  0  0  0  0  0  0  0  0  0
   -7.3832   -2.7733  -21.5418 C   0  0  0  0  0  0  0  0  0  0  0  0
   -7.4057   -1.3604  -21.2274 N   0  0  0  0  0  0  0  0  0  0  0  0
   -6.6101   -0.7916  -20.1981 C   0  0  0  0  0  0  0  0  0  0  0  0
   -6.9014   -1.0388  -18.8813 C   0  0  0  0  0  0  0  0  0  0  0  0
   -6.2120   -0.5227  -17.8357 N   0  0  0  0  0  0  0  0  0  0  0  0
   -5.1709    0.2253  -18.0943 C   0  0  0  0  0  0  0  0  0  0  0  0
   -4.7266    0.5307  -19.4077 C   0  0  0  0  0  0  0  0  0  0  0  0
   -3.5888    1.3494  -19.6400 C   0  0  0  0  0  0  0  0  0  0  0  0
   -3.1791    1.6192  -20.9153 C   0  0  0  0  0  0  0  0  0  0  0  0
   -3.8809    1.0678  -22.0126 C   0  0  0  0  0  0  0  0  0  0  0  0
   -4.9800    0.2741  -21.8108 C   0  0  0  0  0  0  0  0  0  0  0  0
   -5.4536    0.0021  -20.4990 C   0  0  0  0  0  0  0  0  0  0  0  0
   -5.5120   -0.1424  -22.6601 H   0  0  0  0  0  0  0  0  0  0  0  0
   -3.5566    1.2881  -23.0233 H   0  0  0  0  0  0  0  0  0  0  0  0
   -2.3231    2.2639  -21.0940 H   0  0  0  0  0  0  0  0  0  0  0  0
   -3.0692    1.7667  -18.7807 H   0  0  0  0  0  0  0  0  0  0  0  0
   -4.6227    0.6209  -17.2392 H   0  0  0  0  0  0  0  0  0  0  0  0
   -7.7395   -1.6779  -18.6084 H   0  0  0  0  0  0  0  0  0  0  0  0
   -8.1349   -0.5999  -22.1141 C   0  0  0  0  0  0  0  0  0  0  0  0
   -8.2506    0.6041  -22.0395 O   0  0  0  0  0  0  0  0  0  0  0  0
   -8.7314   -1.5314  -23.1927 C   0  0  1  0  0  0  0  0  0  0  0  0
   -7.9662   -1.2616  -24.5076 C   0  0  0  0  0  0  0  0  0  0  0  0
   -8.6012   -1.8229  -25.6991 N   0  0  0  0  0  0  0  0  0  0  0  0
   -7.7338   -2.0652  -26.8453 C   0  0  0  0  0  0  0  0  0  0  0  0
   -6.9399   -3.3385  -26.7182 C   0  0  0  0  0  0  0  0  0  0  0  0
   -5.7060   -3.3982  -26.2623 N   0  0  0  0  0  0  0  0  0  0  0  0
   -5.3744   -4.7306  -26.2698 C   0  0  0  0  0  0  0  0  0  0  0  0
   -6.4301   -5.4773  -26.7161 C   0  0  0  0  0  0  0  0  0  0  0  0
   -7.4323   -4.5752  -27.0180 N   0  0  0  0  0  0  0  0  0  0  0  0
   -8.7735   -4.8941  -27.4762 C   0  0  0  0  0  0  0  0  0  0  0  0
   -9.0381   -4.2900  -28.3503 H   0  0  0  0  0  0  0  0  0  0  0  0
   -9.5184   -4.7211  -26.6914 H   0  0  0  0  0  0  0  0  0  0  0  0
   -8.7851   -5.9504  -27.7522 H   0  0  0  0  0  0  0  0  0  0  0  0
   -6.5828   -6.5407  -26.8219 H   0  0  0  0  0  0  0  0  0  0  0  0
   -4.3978   -5.0588  -25.9388 H   0  0  0  0  0  0  0  0  0  0  0  0
   -8.3685   -2.0515  -27.7340 H   0  0  0  0  0  0  0  0  0  0  0  0
   -7.0119   -1.2448  -26.9137 H   0  0  0  0  0  0  0  0  0  0  0  0
   -9.9557   -1.8066  -25.8858 C   0  0  0  0  0  0  0  0  0  0  0  0
  -10.4913   -2.1124  -26.9439 O   0  0  0  0  0  0  0  0  0  0  0  0
  -10.7679   -1.4234  -24.6966 C   0  0  0  0  0  0  0  0  0  0  0  0
  -12.1431   -1.3137  -24.8846 C   0  0  0  0  0  0  0  0  0  0  0  0
  -12.9573   -0.9522  -23.8351 C   0  0  0  0  0  0  0  0  0  0  0  0
  -12.3956   -0.8488  -22.5745 C   0  0  0  0  0  0  0  0  0  0  0  0
  -13.2679   -0.7037  -21.5724 F   0  0  0  0  0  0  0  0  0  0  0  0
  -11.0390   -0.9701  -22.3451 C   0  0  0  0  0  0  0  0  0  0  0  0
  -10.1997   -1.2460  -23.4319 C   0  0  0  0  0  0  0  0  0  0  0  0
  -10.6259   -0.8706  -21.3481 H   0  0  0  0  0  0  0  0  0  0  0  0
  -14.0273   -0.8028  -23.9082 H   0  0  0  0  0  0  0  0  0  0  0  0
  -12.5303   -1.5987  -25.8561 H   0  0  0  0  0  0  0  0  0  0  0  0
   -6.9616   -1.6965  -24.4606 H   0  0  0  0  0  0  0  0  0  0  0  0
   -7.8770   -0.1677  -24.5906 H   0  0  0  0  0  0  0  0  0  0  0  0
   -6.4104   -3.0868  -21.9537 H   0  0  0  0  0  0  0  0  0  0  0  0
   -7.5566   -3.3331  -20.6280 H   0  0  0  0  0  0  0  0  0  0  0  0
   -9.4378   -3.1682  -22.0050 H   0  0  0  0  0  0  0  0  0  0  0  0
   -7.3116   -3.9749  -24.0623 H   0  0  0  0  0  0  0  0  0  0  0  0
   -8.2309   -5.0665  -23.0123 H   0  0  0  0  0  0  0  0  0  0  0  0
   -9.0614   -4.1609  -24.2906 H   0  0  0  0  0  0  0  0  0  0  0  0
  1  2  1  0
  2  3  1  0
  3  4  1  0
  4  5  1  0
  5  6  2  0
  6  7  1  0
  7  8  2  0
  8  9  1  0
  9 10  2  0
 10 11  1  0
 11 12  2  0
 12 13  1  0
 13 14  2  0
 13 15  1  0
 12 16  1  0
 11 17  1  0
 10 18  1  0
  8 19  1  0
  6 20  1  0
  4 21  1  0
 21 22  2  0
 21 23  1  0
 23 24  1  6
 24 25  1  0
 25 26  1  0
 26 27  1  0
 27 28  2  0
 28 29  1  0
 29 30  2  0
 30 31  1  0
 31 32  1  0
 32 33  1  0
 32 34  1  0
 32 35  1  0
 30 36  1  0
 29 37  1  0
 26 38  1  0
 26 39  1  0
 25 40  1  0
 40 41  2  0
 40 42  1  0
 42 43  2  0
 43 44  1  0
 44 45  2  0
 45 46  1  0
 45 47  1  0
 47 48  2  0
 47 49  1  0
 44 50  1  0
 43 51  1  0
 24 52  1  0
 24 53  1  0
  3 54  1  0
  3 55  1  0
  2 56  1  1
  1 57  1  0
  1 58  1  0
  1 59  1  0
 23  2  1  0
 31 27  1  0
 48 42  1  0
 14  5  1  0
 48 23  1  0
 14  9  1  0
M  END
>  <cnnaffinities>  (5) 
[6.3512, 6.11334]

>  <score>  (5) 
6.3512

>  <index>  (5) 
4

>  <Smiles>  (5) 
C([C@]1(C(N(c2c(nc(c3c(c(c(c(c23)[H])[H])[H])[H])[H])[H])C(=O)[C@]21C(N(C(c1nc(c(n1C([H])([H])[H])[H])[H])([H])[H])C(=O)c1c(c(c(F)c(c21)[H])[H])[H])([H])[H])([H])[H])[H])([H])([H])[H]

>  <h>  (5) 
<NA>

>  <Training>  (5) 
True

>  <Success>  (5) 
True

>  <enamine_searched>  (5) 
False

>  <enamine_id>  (5) 
nan

$$$$

     RDKit          3D

 58 61  0  0  0  0  0  0  0  0999 V2000
   -5.0862   -3.0917  -22.4243 C   0  0  0  0  0  0  0  0  0  0  0  0
   -6.4046   -3.2700  -22.4080 C   0  0  0  0  0  0  0  0  0  0  0  0
   -7.3743   -2.8148  -21.3575 C   0  0  0  0  0  0  0  0  0  0  0  0
   -7.4019   -1.3684  -21.2076 N   0  0  0  0  0  0  0  0  0  0  0  0
   -8.2254   -0.5016  -21.9136 C   0  0  0  0  0  0  0  0  0  0  0  0
   -8.3707    0.6414  -21.5285 O   0  0  0  0  0  0  0  0  0  0  0  0
   -8.9177   -1.0043  -23.1990 C   0  0  2  0  0  0  0  0  0  0  0  0
   -8.4461   -0.1564  -24.4189 C   0  0  0  0  0  0  0  0  0  0  0  0
   -8.9629    1.2073  -24.3800 N   0  0  0  0  0  0  0  0  0  0  0  0
   -8.1437    2.3050  -24.8577 C   0  0  0  0  0  0  0  0  0  0  0  0
   -7.1307    2.7528  -23.8038 C   0  0  0  0  0  0  0  0  0  0  0  0
   -5.9406    2.4867  -23.9097 O   0  0  0  0  0  0  0  0  0  0  0  0
   -7.6290    3.4509  -22.7597 N   0  0  0  0  0  0  0  0  0  0  0  0
   -6.7572    3.7515  -21.6420 C   0  0  0  0  0  0  0  0  0  0  0  0
   -7.3510    4.2353  -20.8656 H   0  0  0  0  0  0  0  0  0  0  0  0
   -5.9607    4.4332  -21.9571 H   0  0  0  0  0  0  0  0  0  0  0  0
   -6.2902    2.8328  -21.2530 H   0  0  0  0  0  0  0  0  0  0  0  0
   -8.6302    3.4754  -22.6269 H   0  0  0  0  0  0  0  0  0  0  0  0
   -8.8130    3.1270  -25.1245 H   0  0  0  0  0  0  0  0  0  0  0  0
   -7.6042    1.9871  -25.7514 H   0  0  0  0  0  0  0  0  0  0  0  0
  -10.1897    1.4998  -23.8725 C   0  0  0  0  0  0  0  0  0  0  0  0
  -10.5742    2.6621  -23.7410 O   0  0  0  0  0  0  0  0  0  0  0  0
  -11.0347    0.3111  -23.5240 C   0  0  0  0  0  0  0  0  0  0  0  0
  -12.4223    0.3981  -23.5653 C   0  0  0  0  0  0  0  0  0  0  0  0
  -13.2060   -0.5958  -23.0002 C   0  0  0  0  0  0  0  0  0  0  0  0
  -12.5772   -1.6743  -22.3793 C   0  0  0  0  0  0  0  0  0  0  0  0
  -13.5400   -2.8325  -21.5064 Cl  0  0  0  0  0  0  0  0  0  0  0  0
  -11.1977   -1.8244  -22.4302 C   0  0  0  0  0  0  0  0  0  0  0  0
  -10.4199   -0.8472  -23.0514 C   0  0  0  0  0  0  0  0  0  0  0  0
  -10.7480   -2.7223  -22.0133 H   0  0  0  0  0  0  0  0  0  0  0  0
  -14.2887   -0.5043  -22.9791 H   0  0  0  0  0  0  0  0  0  0  0  0
  -12.8811    1.2884  -23.9809 H   0  0  0  0  0  0  0  0  0  0  0  0
   -7.3518   -0.1005  -24.4389 H   0  0  0  0  0  0  0  0  0  0  0  0
   -8.7793   -0.6469  -25.3464 H   0  0  0  0  0  0  0  0  0  0  0  0
   -8.6762   -2.0593  -23.4042 H   0  0  0  0  0  0  0  0  0  0  0  0
   -6.6065   -0.7903  -20.1852 C   0  0  0  0  0  0  0  0  0  0  0  0
   -6.9381   -0.9955  -18.8707 C   0  0  0  0  0  0  0  0  0  0  0  0
   -6.2640   -0.4692  -17.8282 N   0  0  0  0  0  0  0  0  0  0  0  0
   -5.2051    0.2573  -18.0953 C   0  0  0  0  0  0  0  0  0  0  0  0
   -4.7503    0.5470  -19.4114 C   0  0  0  0  0  0  0  0  0  0  0  0
   -3.6032    1.3470  -19.6560 C   0  0  0  0  0  0  0  0  0  0  0  0
   -3.2005    1.6165  -20.9366 C   0  0  0  0  0  0  0  0  0  0  0  0
   -3.9196    1.0946  -22.0311 C   0  0  0  0  0  0  0  0  0  0  0  0
   -5.0215    0.2996  -21.8191 C   0  0  0  0  0  0  0  0  0  0  0  0
   -5.4755    0.0158  -20.5017 C   0  0  0  0  0  0  0  0  0  0  0  0
   -5.5598   -0.1164  -22.6677 H   0  0  0  0  0  0  0  0  0  0  0  0
   -3.6202    1.3420  -23.0438 H   0  0  0  0  0  0  0  0  0  0  0  0
   -2.3304    2.2442  -21.1133 H   0  0  0  0  0  0  0  0  0  0  0  0
   -3.0657    1.7497  -18.8027 H   0  0  0  0  0  0  0  0  0  0  0  0
   -4.6555    0.6636  -17.2460 H   0  0  0  0  0  0  0  0  0  0  0  0
   -7.8058   -1.6076  -18.6276 H   0  0  0  0  0  0  0  0  0  0  0  0
   -8.3417   -3.1972  -21.6880 H   0  0  0  0  0  0  0  0  0  0  0  0
   -7.0869   -3.2184  -20.3863 H   0  0  0  0  0  0  0  0  0  0  0  0
   -7.1553   -3.9062  -23.5633 C   0  0  0  0  0  0  0  0  0  0  0  0
   -8.3965   -3.9442  -23.4358 O   0  0  0  0  0  0  0  0  0  0  0  0
   -6.4681   -4.2906  -24.5250 O   0  0  0  0  0  1  0  0  0  0  0  0
   -4.4654   -3.4616  -23.2351 H   0  0  0  0  0  0  0  0  0  0  0  0
   -4.6079   -2.5290  -21.6225 H   0  0  0  0  0  0  0  0  0  0  0  0
  1  2  2  0
  2  3  1  0
  3  4  1  0
  4  5  1  0
  5  6  2  0
  5  7  1  0
  7  8  1  0
  8  9  1  0
  9 10  1  0
 10 11  1  0
 11 12  2  0
 11 13  1  0
 13 14  1  0
 14 15  1  0
 14 16  1  0
 14 17  1  0
 13 18  1  0
 10 19  1  0
 10 20  1  0
  9 21  1  0
 21 22  2  0
 21 23  1  0
 23 24  2  0
 24 25  1  0
 25 26  2  0
 26 27  1  0
 26 28  1  0
 28 29  2  0
 28 30  1  0
 25 31  1  0
 24 32  1  0
  8 33  1  0
  8 34  1  0
  7 35  1  6
  4 36  1  0
 36 37  2  0
 37 38  1  0
 38 39  2  0
 39 40  1  0
 40 41  2  0
 41 42  1  0
 42 43  2  0
 43 44  1  0
 44 45  2  0
 44 46  1  0
 43 47  1  0
 42 48  1  0
 41 49  1  0
 39 50  1  0
 37 51  1  0
  3 52  1  0
  3 53  1  0
  2 54  1  0
 54 55  2  0
 54 56  1  0
  1 57  1  0
  1 58  1  0
 29  7  1  0
 45 36  1  0
 29 23  1  0
 45 40  1  0
M  CHG  1  56  -1
M  END
>  <cnnaffinities>  (6) 
[6.344]

>  <score>  (6) 
6.344

>  <index>  (6) 
5

>  <Smiles>  (6) 
C(=C(C(N(C(=O)[C@@]1(C(N(C(C(=O)N(C([H])([H])[H])[H])([H])[H])C(=O)c2c(c(c(Cl)c(c12)[H])[H])[H])([H])[H])[H])c1c(nc(c2c(c(c(c(c12)[H])[H])[H])[H])[H])[H])([H])[H])C(=O)[O-])([H])[H]

>  <h>  (6) 
<NA>

>  <Training>  (6) 
True

>  <Success>  (6) 
True

>  <enamine_searched>  (6) 
False

>  <enamine_id>  (6) 
nan

$$$$

     RDKit          3D

 43 45  0  0  0  0  0  0  0  0999 V2000
  -14.5052   -2.7189  -22.6860 C   0  0  0  0  0  0  0  0  0  0  0  0
  -13.0536   -3.1124  -22.9834 C   0  0  0  0  0  0  0  0  0  0  0  0
  -12.2099   -1.9745  -23.5955 C   0  0  0  0  0  0  0  0  0  0  0  0
  -12.0855   -0.8027  -22.6198 C   0  0  0  0  0  0  0  0  0  0  0  0
  -10.7564   -0.0424  -22.6954 C   0  0  0  0  0  0  0  0  0  0  0  0
   -9.6406   -0.9506  -22.4181 N   0  0  0  0  0  0  0  0  0  0  0  0
   -8.5264   -0.4413  -21.8014 C   0  0  0  0  0  0  0  0  0  0  0  0
   -8.3779    0.7618  -21.6578 O   0  0  0  0  0  0  0  0  0  0  0  0
   -7.4640   -1.4341  -21.2653 C   0  0  0  0  0  0  0  0  0  0  0  0
   -6.5859   -0.8272  -20.1935 C   0  0  0  0  0  0  0  0  0  0  0  0
   -6.8862   -1.0288  -18.8723 C   0  0  0  0  0  0  0  0  0  0  0  0
   -6.2097   -0.5005  -17.8213 N   0  0  0  0  0  0  0  0  0  0  0  0
   -5.1619    0.2355  -18.0816 C   0  0  0  0  0  0  0  0  0  0  0  0
   -4.7213    0.5341  -19.3946 C   0  0  0  0  0  0  0  0  0  0  0  0
   -3.5945    1.3610  -19.6284 C   0  0  0  0  0  0  0  0  0  0  0  0
   -3.2059    1.6583  -20.9034 C   0  0  0  0  0  0  0  0  0  0  0  0
   -3.9343    1.1335  -21.9986 C   0  0  0  0  0  0  0  0  0  0  0  0
   -5.0295    0.3286  -21.7936 C   0  0  0  0  0  0  0  0  0  0  0  0
   -5.4559    0.0009  -20.4838 C   0  0  0  0  0  0  0  0  0  0  0  0
   -5.5934   -0.0486  -22.6411 H   0  0  0  0  0  0  0  0  0  0  0  0
   -3.6270    1.3802  -23.0073 H   0  0  0  0  0  0  0  0  0  0  0  0
   -2.3548    2.3075  -21.0837 H   0  0  0  0  0  0  0  0  0  0  0  0
   -3.0653    1.7678  -18.7686 H   0  0  0  0  0  0  0  0  0  0  0  0
   -4.6085    0.6270  -17.2264 H   0  0  0  0  0  0  0  0  0  0  0  0
   -7.7259   -1.6568  -18.5821 H   0  0  0  0  0  0  0  0  0  0  0  0
   -6.8438   -1.7981  -22.0983 H   0  0  0  0  0  0  0  0  0  0  0  0
   -7.9726   -2.3186  -20.8564 H   0  0  0  0  0  0  0  0  0  0  0  0
   -9.7569   -2.3235  -22.9002 C   0  0  0  0  0  0  0  0  0  0  0  0
  -10.8093   -2.4339  -24.0091 C   0  0  0  0  0  0  0  0  0  0  0  0
  -10.4828   -1.8374  -24.8701 H   0  0  0  0  0  0  0  0  0  0  0  0
  -10.8651   -3.4754  -24.3362 H   0  0  0  0  0  0  0  0  0  0  0  0
   -8.7894   -2.6288  -23.3134 H   0  0  0  0  0  0  0  0  0  0  0  0
   -9.9879   -3.0148  -22.0731 H   0  0  0  0  0  0  0  0  0  0  0  0
  -10.6288    0.4472  -23.6758 H   0  0  0  0  0  0  0  0  0  0  0  0
  -10.6951    0.7565  -21.9550 H   0  0  0  0  0  0  0  0  0  0  0  0
  -12.9379   -0.1435  -22.7871 H   0  0  0  0  0  0  0  0  0  0  0  0
  -12.1815   -1.2526  -21.6331 H   0  0  0  0  0  0  0  0  0  0  0  0
  -12.7394   -1.6349  -24.5004 H   0  0  0  0  0  0  0  0  0  0  0  0
  -12.5730   -3.4843  -22.0631 H   0  0  0  0  0  0  0  0  0  0  0  0
  -13.0478   -3.9570  -23.6839 H   0  0  0  0  0  0  0  0  0  0  0  0
  -15.0842   -3.5844  -22.3467 H   0  0  0  0  0  0  0  0  0  0  0  0
  -14.5809   -1.9504  -21.9068 H   0  0  0  0  0  0  0  0  0  0  0  0
  -14.9974   -2.3248  -23.5845 H   0  0  0  0  0  0  0  0  0  0  0  0
  1  2  1  0
  2  3  1  0
  3  4  1  0
  4  5  1  0
  5  6  1  0
  6  7  1  0
  7  8  2  0
  7  9  1  0
  9 10  1  0
 10 11  2  0
 11 12  1  0
 12 13  2  0
 13 14  1  0
 14 15  2  0
 15 16  1  0
 16 17  2  0
 17 18  1  0
 18 19  2  0
 18 20  1  0
 17 21  1  0
 16 22  1  0
 15 23  1  0
 13 24  1  0
 11 25  1  0
  9 26  1  0
  9 27  1  0
  6 28  1  0
 28 29  1  0
 29 30  1  0
 29 31  1  0
 28 32  1  0
 28 33  1  0
  5 34  1  0
  5 35  1  0
  4 36  1  0
  4 37  1  0
  3 38  1  0
  2 39  1  0
  2 40  1  0
  1 41  1  0
  1 42  1  0
  1 43  1  0
 29  3  1  0
 19 10  1  0
 19 14  1  0
M  END
>  <cnnaffinities>  (7) 
[4.82041, 4.86636, 4.86639, 5.07897, 4.49298, 4.49286, 4.98753, 4.98724, 4.75932, 4.7609]

>  <score>  (7) 
4.82041

>  <index>  (7) 
6

>  <Smiles>  (7) 
C(C(C1(C(C(N(C(=O)C(c2c(nc(c3c(c(c(c(c23)[H])[H])[H])[H])[H])[H])([H])[H])C(C1([H])[H])([H])[H])([H])[H])([H])[H])[H])([H])[H])([H])([H])[H]

>  <h>  (7) 
<NA>

>  <Training>  (7) 
True

>  <Success>  (7) 
True

>  <enamine_searched>  (7) 
False

>  <enamine_id>  (7) 
nan

$$$$

     RDKit          3D

 44 47  0  0  0  0  0  0  0  0999 V2000
  -10.1064   -5.9912  -27.5697 C   0  0  0  0  0  0  0  0  0  0  0  0
   -8.9833   -5.2960  -26.7947 C   0  0  0  0  0  0  0  0  0  0  0  0
   -9.2389   -5.5185  -25.0392 S   0  0  0  0  0  0  0  0  0  0  0  0
   -9.0646   -6.9245  -24.7220 O   0  0  0  0  0  0  0  0  0  0  0  0
  -10.4839   -4.8306  -24.7135 O   0  0  0  0  0  0  0  0  0  0  0  0
   -7.9651   -4.6999  -24.2718 N   0  0  0  0  0  0  0  0  0  0  0  0
   -8.0715   -4.6915  -22.7708 C   0  0  0  0  0  0  0  0  0  0  0  0
   -8.0685   -3.1514  -22.7668 C   0  0  0  0  0  0  0  0  0  0  0  0
   -7.9968   -3.2154  -24.3140 C   0  0  0  0  0  0  0  0  0  0  0  0
   -7.0682   -2.8278  -24.7327 H   0  0  0  0  0  0  0  0  0  0  0  0
   -8.8557   -2.7810  -24.8378 H   0  0  0  0  0  0  0  0  0  0  0  0
   -6.8694   -2.5286  -22.0679 C   0  0  0  0  0  0  0  0  0  0  0  0
   -5.7100   -2.8175  -22.2255 O   0  0  0  0  0  0  0  0  0  0  0  0
   -7.3663   -1.5348  -21.2193 N   0  0  0  0  0  0  0  0  0  0  0  0
   -6.5982   -0.8652  -20.2091 C   0  0  0  0  0  0  0  0  0  0  0  0
   -6.9188   -1.0502  -18.8858 C   0  0  0  0  0  0  0  0  0  0  0  0
   -6.2326   -0.5149  -17.8469 N   0  0  0  0  0  0  0  0  0  0  0  0
   -5.1845    0.2194  -18.1112 C   0  0  0  0  0  0  0  0  0  0  0  0
   -4.7457    0.5210  -19.4251 C   0  0  0  0  0  0  0  0  0  0  0  0
   -3.6135    1.3529  -19.6450 C   0  0  0  0  0  0  0  0  0  0  0  0
   -3.2224    1.6608  -20.9180 C   0  0  0  0  0  0  0  0  0  0  0  0
   -3.9537    1.1481  -22.0123 C   0  0  0  0  0  0  0  0  0  0  0  0
   -5.0485    0.3390  -21.8225 C   0  0  0  0  0  0  0  0  0  0  0  0
   -5.4752   -0.0167  -20.5142 C   0  0  0  0  0  0  0  0  0  0  0  0
   -5.5960   -0.0442  -22.6767 H   0  0  0  0  0  0  0  0  0  0  0  0
   -3.6462    1.4008  -23.0213 H   0  0  0  0  0  0  0  0  0  0  0  0
   -2.3666    2.3096  -21.0932 H   0  0  0  0  0  0  0  0  0  0  0  0
   -3.0843    1.7516  -18.7826 H   0  0  0  0  0  0  0  0  0  0  0  0
   -4.6289    0.6132  -17.2588 H   0  0  0  0  0  0  0  0  0  0  0  0
   -7.7590   -1.6781  -18.6039 H   0  0  0  0  0  0  0  0  0  0  0  0
   -8.7595   -1.3804  -21.4093 C   0  0  0  0  0  0  0  0  0  0  0  0
   -9.4354   -0.4574  -21.0137 O   0  0  0  0  0  0  0  0  0  0  0  0
   -9.1734   -2.4480  -22.1705 N   0  0  0  0  0  0  0  0  0  0  0  0
  -10.5632   -2.6989  -22.4929 C   0  0  0  0  0  0  0  0  0  0  0  0
  -10.8348   -3.7409  -22.2786 H   0  0  0  0  0  0  0  0  0  0  0  0
  -10.7637   -2.4934  -23.5514 H   0  0  0  0  0  0  0  0  0  0  0  0
  -11.1482   -2.0239  -21.8668 H   0  0  0  0  0  0  0  0  0  0  0  0
   -7.1862   -5.1303  -22.3078 H   0  0  0  0  0  0  0  0  0  0  0  0
   -8.9774   -5.1495  -22.3608 H   0  0  0  0  0  0  0  0  0  0  0  0
   -8.9751   -4.2131  -26.9646 H   0  0  0  0  0  0  0  0  0  0  0  0
   -7.9946   -5.7086  -27.0169 H   0  0  0  0  0  0  0  0  0  0  0  0
   -9.9596   -5.8557  -28.6455 H   0  0  0  0  0  0  0  0  0  0  0  0
  -11.0836   -5.5784  -27.2978 H   0  0  0  0  0  0  0  0  0  0  0  0
  -10.1167   -7.0649  -27.3534 H   0  0  0  0  0  0  0  0  0  0  0  0
  1  2  1  0
  2  3  1  0
  3  4  2  0
  3  5  2  0
  3  6  1  0
  6  7  1  0
  7  8  1  0
  8  9  1  0
  9 10  1  0
  9 11  1  0
  8 12  1  0
 12 13  2  0
 12 14  1  0
 14 15  1  0
 15 16  2  0
 16 17  1  0
 17 18  2  0
 18 19  1  0
 19 20  2  0
 20 21  1  0
 21 22  2  0
 22 23  1  0
 23 24  2  0
 23 25  1  0
 22 26  1  0
 21 27  1  0
 20 28  1  0
 18 29  1  0
 16 30  1  0
 14 31  1  0
 31 32  2  0
 31 33  1  0
 33 34  1  0
 34 35  1  0
 34 36  1  0
 34 37  1  0
  7 38  1  0
  7 39  1  0
  2 40  1  0
  2 41  1  0
  1 42  1  0
  1 43  1  0
  1 44  1  0
  9  6  1  0
 24 15  1  0
 33  8  1  0
 24 19  1  0
M  END
>  <cnnaffinities>  (8) 
[5.3753, 5.37997, 5.37856, 5.3655, 5.36089, 5.20059, 5.20064]

>  <score>  (8) 
5.3753

>  <index>  (8) 
7

>  <Smiles>  (8) 
C(C(S(=O)(=O)N1C(C2(C1([H])[H])C(=O)N(c1c(nc(c3c(c(c(c(c13)[H])[H])[H])[H])[H])[H])C(=O)N2C([H])([H])[H])([H])[H])([H])[H])([H])([H])[H]

>  <h>  (8) 
<NA>

>  <Training>  (8) 
True

>  <Success>  (8) 
True

>  <enamine_searched>  (8) 
False

>  <enamine_id>  (8) 
nan

$$$$

     RDKit          3D

 60 64  0  0  0  0  0  0  0  0999 V2000
   -8.1409    0.0163  -29.7668 C   0  0  0  0  0  0  0  0  0  0  0  0
   -8.2002   -1.1077  -28.8573 N   0  0  0  0  0  0  0  0  0  0  0  0
   -7.3659   -1.1160  -27.7718 C   0  0  0  0  0  0  0  0  0  0  0  0
   -6.5055   -0.2787  -27.5627 O   0  0  0  0  0  0  0  0  0  0  0  0
   -7.5971   -2.2989  -26.8191 C   0  0  0  0  0  0  0  0  0  0  0  0
   -8.4743   -1.9293  -25.7178 N   0  0  0  0  0  0  0  0  0  0  0  0
   -7.9166   -1.2910  -24.5297 C   0  0  0  0  0  0  0  0  0  0  0  0
   -8.7633   -1.5472  -23.2520 C   0  0  2  0  0  0  0  0  0  0  0  0
   -8.2278   -0.5762  -22.1834 C   0  0  0  0  0  0  0  0  0  0  0  0
   -8.4349    0.6125  -22.0944 O   0  0  0  0  0  0  0  0  0  0  0  0
   -7.4158   -1.2904  -21.3196 N   0  0  0  0  0  0  0  0  0  0  0  0
   -6.6373   -0.7065  -20.2897 C   0  0  0  0  0  0  0  0  0  0  0  0
   -6.9538   -0.9718  -18.9823 C   0  0  0  0  0  0  0  0  0  0  0  0
   -6.2869   -0.4755  -17.9141 N   0  0  0  0  0  0  0  0  0  0  0  0
   -5.2353    0.2686  -18.1507 C   0  0  0  0  0  0  0  0  0  0  0  0
   -4.7557    0.5742  -19.4548 C   0  0  0  0  0  0  0  0  0  0  0  0
   -3.5949    1.3668  -19.6564 C   0  0  0  0  0  0  0  0  0  0  0  0
   -3.1484    1.6279  -20.9217 C   0  0  0  0  0  0  0  0  0  0  0  0
   -3.8263    1.0983  -22.0416 C   0  0  0  0  0  0  0  0  0  0  0  0
   -4.9518    0.3316  -21.8705 C   0  0  0  0  0  0  0  0  0  0  0  0
   -5.4612    0.0656  -20.5693 C   0  0  0  0  0  0  0  0  0  0  0  0
   -5.4594   -0.0802  -22.7368 H   0  0  0  0  0  0  0  0  0  0  0  0
   -3.4601    1.3107  -23.0416 H   0  0  0  0  0  0  0  0  0  0  0  0
   -2.2737    2.2523  -21.0740 H   0  0  0  0  0  0  0  0  0  0  0  0
   -3.0859    1.7679  -18.7840 H   0  0  0  0  0  0  0  0  0  0  0  0
   -4.7001    0.6596  -17.2850 H   0  0  0  0  0  0  0  0  0  0  0  0
   -7.8114   -1.6058  -18.7560 H   0  0  0  0  0  0  0  0  0  0  0  0
   -7.3297   -2.7070  -21.6094 C   0  0  0  0  0  0  0  0  0  0  0  0
   -8.5143   -2.9237  -22.5462 C   0  0  2  0  0  0  0  0  0  0  0  0
   -8.3977   -4.1404  -23.4435 C   0  0  0  0  0  0  0  0  0  0  0  0
   -7.1439   -4.1397  -24.0896 O   0  0  0  0  0  0  0  0  0  0  0  0
   -6.9713   -5.2500  -24.9287 C   0  0  0  0  0  0  0  0  0  0  0  0
   -7.0256   -6.1960  -24.3684 H   0  0  0  0  0  0  0  0  0  0  0  0
   -5.9809   -5.1720  -25.3841 H   0  0  0  0  0  0  0  0  0  0  0  0
   -7.7252   -5.2761  -25.7302 H   0  0  0  0  0  0  0  0  0  0  0  0
   -8.5063   -5.0591  -22.8457 H   0  0  0  0  0  0  0  0  0  0  0  0
   -9.2081   -4.1164  -24.1849 H   0  0  0  0  0  0  0  0  0  0  0  0
   -9.4060   -3.0784  -21.9190 H   0  0  0  0  0  0  0  0  0  0  0  0
   -7.4269   -3.2756  -20.6843 H   0  0  0  0  0  0  0  0  0  0  0  0
   -6.3652   -2.9713  -22.0661 H   0  0  0  0  0  0  0  0  0  0  0  0
  -10.2381   -1.3793  -23.5709 C   0  0  0  0  0  0  0  0  0  0  0  0
  -11.1906   -1.2705  -22.5439 C   0  0  0  0  0  0  0  0  0  0  0  0
  -12.5404   -1.2667  -22.8725 C   0  0  0  0  0  0  0  0  0  0  0  0
  -13.7606   -1.3391  -21.6506 Cl  0  0  0  0  0  0  0  0  0  0  0  0
  -12.9920   -1.3361  -24.1874 C   0  0  0  0  0  0  0  0  0  0  0  0
  -12.0499   -1.4588  -25.1866 C   0  0  0  0  0  0  0  0  0  0  0  0
  -10.6949   -1.4861  -24.8862 C   0  0  0  0  0  0  0  0  0  0  0  0
   -9.7910   -1.8038  -26.0254 C   0  0  0  0  0  0  0  0  0  0  0  0
  -10.2182   -2.0101  -27.1631 O   0  0  0  0  0  0  0  0  0  0  0  0
  -12.3090   -1.6002  -26.2252 H   0  0  0  0  0  0  0  0  0  0  0  0
  -14.0592   -1.3602  -24.3814 H   0  0  0  0  0  0  0  0  0  0  0  0
  -10.8718   -1.2346  -21.5064 H   0  0  0  0  0  0  0  0  0  0  0  0
   -6.9060   -1.6804  -24.3832 H   0  0  0  0  0  0  0  0  0  0  0  0
   -7.8429   -0.2028  -24.6746 H   0  0  0  0  0  0  0  0  0  0  0  0
   -6.6371   -2.6325  -26.4124 H   0  0  0  0  0  0  0  0  0  0  0  0
   -8.0785   -3.1196  -27.3629 H   0  0  0  0  0  0  0  0  0  0  0  0
   -9.1146   -1.5144  -28.6955 H   0  0  0  0  0  0  0  0  0  0  0  0
   -8.4232    0.9588  -29.2839 H   0  0  0  0  0  0  0  0  0  0  0  0
   -8.8066   -0.1774  -30.6112 H   0  0  0  0  0  0  0  0  0  0  0  0
   -7.1228    0.1237  -30.1417 H   0  0  0  0  0  0  0  0  0  0  0  0
  1  2  1  0
  2  3  1  0
  3  4  2  0
  3  5  1  0
  5  6  1  0
  6  7  1  0
  8  7  1  6
  8  9  1  0
  9 10  2  0
  9 11  1  0
 11 12  1  0
 12 13  2  0
 13 14  1  0
 14 15  2  0
 15 16  1  0
 16 17  2  0
 17 18  1  0
 18 19  2  0
 19 20  1  0
 20 21  2  0
 20 22  1  0
 19 23  1  0
 18 24  1  0
 17 25  1  0
 15 26  1  0
 13 27  1  0
 11 28  1  0
 28 29  1  0
 29 30  1  0
 30 31  1  0
 31 32  1  0
 32 33  1  0
 32 34  1  0
 32 35  1  0
 30 36  1  0
 30 37  1  0
 29 38  1  1
 28 39  1  0
 28 40  1  0
  8 41  1  0
 41 42  2  0
 42 43  1  0
 43 44  1  0
 43 45  2  0
 45 46  1  0
 46 47  2  0
 47 48  1  0
 48 49  2  0
 46 50  1  0
 45 51  1  0
 42 52  1  0
  7 53  1  0
  7 54  1  0
  5 55  1  0
  5 56  1  0
  2 57  1  0
  1 58  1  0
  1 59  1  0
  1 60  1  0
 48  6  1  0
 29  8  1  0
 47 41  1  0
 21 12  1  0
 21 16  1  0
M  END
>  <cnnaffinities>  (9) 
[6.25351, 6.61476]

>  <score>  (9) 
6.25351

>  <index>  (9) 
8

>  <Smiles>  (9) 
C(N(C(=O)C(N1C([C@@]2(C(=O)N(c3c(nc(c4c(c(c(c(c34)[H])[H])[H])[H])[H])[H])C([C@@]2(C(OC([H])([H])[H])([H])[H])[H])([H])[H])c2c(c(Cl)c(c(c2C1=O)[H])[H])[H])([H])[H])([H])[H])[H])([H])([H])[H]

>  <h>  (9) 
<NA>

>  <Training>  (9) 
True

>  <Success>  (9) 
True

>  <enamine_searched>  (9) 
False

>  <enamine_id>  (9) 
nan

$$$$

     RDKit          3D

 41 43  0  0  0  0  0  0  0  0999 V2000
  -13.1786   -2.9268  -22.9038 C   0  0  0  0  0  0  0  0  0  0  0  0
  -11.9682   -2.0497  -23.2210 C   0  0  1  0  0  0  0  0  0  0  0  0
  -12.1517   -0.6608  -22.6481 C   0  0  0  0  0  0  0  0  0  0  0  0
  -11.3097    0.3524  -22.8400 C   0  0  0  0  0  0  0  0  0  0  0  0
  -10.0167    0.2140  -23.6083 C   0  0  0  0  0  0  0  0  0  0  0  0
   -9.0884   -0.7837  -23.0607 N   0  0  0  0  0  0  0  0  0  0  0  0
   -8.3783   -0.4056  -21.9322 C   0  0  0  0  0  0  0  0  0  0  0  0
   -8.4817    0.7165  -21.4715 O   0  0  0  0  0  0  0  0  0  0  0  0
   -7.4318   -1.4341  -21.2755 C   0  0  0  0  0  0  0  0  0  0  0  0
   -6.5780   -0.8291  -20.1871 C   0  0  0  0  0  0  0  0  0  0  0  0
   -6.8799   -1.0335  -18.8684 C   0  0  0  0  0  0  0  0  0  0  0  0
   -6.2007   -0.5110  -17.8144 N   0  0  0  0  0  0  0  0  0  0  0  0
   -5.1548    0.2295  -18.0729 C   0  0  0  0  0  0  0  0  0  0  0  0
   -4.7192    0.5360  -19.3867 C   0  0  0  0  0  0  0  0  0  0  0  0
   -3.5942    1.3653  -19.6245 C   0  0  0  0  0  0  0  0  0  0  0  0
   -3.2084    1.6585  -20.9033 C   0  0  0  0  0  0  0  0  0  0  0  0
   -3.9334    1.1302  -21.9941 C   0  0  0  0  0  0  0  0  0  0  0  0
   -5.0259    0.3234  -21.7886 C   0  0  0  0  0  0  0  0  0  0  0  0
   -5.4527    0.0016  -20.4757 C   0  0  0  0  0  0  0  0  0  0  0  0
   -5.5771   -0.0660  -22.6379 H   0  0  0  0  0  0  0  0  0  0  0  0
   -3.6229    1.3733  -23.0055 H   0  0  0  0  0  0  0  0  0  0  0  0
   -2.3531    2.3040  -21.0878 H   0  0  0  0  0  0  0  0  0  0  0  0
   -3.0561    1.7759  -18.7730 H   0  0  0  0  0  0  0  0  0  0  0  0
   -4.6006    0.6276  -17.2188 H   0  0  0  0  0  0  0  0  0  0  0  0
   -7.7269   -1.6581  -18.5849 H   0  0  0  0  0  0  0  0  0  0  0  0
   -6.7962   -1.9002  -22.0394 H   0  0  0  0  0  0  0  0  0  0  0  0
   -8.0410   -2.2444  -20.8458 H   0  0  0  0  0  0  0  0  0  0  0  0
   -9.3939   -2.1699  -23.3975 C   0  0  0  0  0  0  0  0  0  0  0  0
  -10.6661   -2.7295  -22.7532 C   0  0  0  0  0  0  0  0  0  0  0  0
  -10.5877   -2.6369  -21.6644 H   0  0  0  0  0  0  0  0  0  0  0  0
  -10.7249   -3.8071  -22.9660 H   0  0  0  0  0  0  0  0  0  0  0  0
   -8.5299   -2.7932  -23.1562 H   0  0  0  0  0  0  0  0  0  0  0  0
   -9.5105   -2.2193  -24.4854 H   0  0  0  0  0  0  0  0  0  0  0  0
  -10.2430   -0.0787  -24.6398 H   0  0  0  0  0  0  0  0  0  0  0  0
   -9.5070    1.1777  -23.6539 H   0  0  0  0  0  0  0  0  0  0  0  0
  -11.4865    1.3332  -22.3995 H   0  0  0  0  0  0  0  0  0  0  0  0
  -13.0266   -0.5167  -22.0127 H   0  0  0  0  0  0  0  0  0  0  0  0
  -11.9077   -1.9536  -24.3151 H   0  0  0  0  0  0  0  0  0  0  0  0
  -13.0976   -3.9090  -23.3855 H   0  0  0  0  0  0  0  0  0  0  0  0
  -13.2636   -3.0903  -21.8220 H   0  0  0  0  0  0  0  0  0  0  0  0
  -14.1067   -2.4569  -23.2514 H   0  0  0  0  0  0  0  0  0  0  0  0
  1  2  1  0
  2  3  1  0
  3  4  2  0
  4  5  1  0
  5  6  1  0
  6  7  1  0
  7  8  2  0
  7  9  1  0
  9 10  1  0
 10 11  2  0
 11 12  1  0
 12 13  2  0
 13 14  1  0
 14 15  2  0
 15 16  1  0
 16 17  2  0
 17 18  1  0
 18 19  2  0
 18 20  1  0
 17 21  1  0
 16 22  1  0
 15 23  1  0
 13 24  1  0
 11 25  1  0
  9 26  1  0
  9 27  1  0
  6 28  1  0
 28 29  1  0
 29 30  1  0
 29 31  1  0
 28 32  1  0
 28 33  1  0
  5 34  1  0
  5 35  1  0
  4 36  1  0
  3 37  1  0
  2 38  1  6
  1 39  1  0
  1 40  1  0
  1 41  1  0
 29  2  1  0
 19 10  1  0
 19 14  1  0
M  END
>  <cnnaffinities>  (10) 
[4.91806, 4.78147]

>  <score>  (10) 
4.91806

>  <index>  (10) 
9

>  <Smiles>  (10) 
C([C@]1(C(=C(C(N(C(=O)C(c2c(nc(c3c(c(c(c(c23)[H])[H])[H])[H])[H])[H])([H])[H])C(C1([H])[H])([H])[H])([H])[H])[H])[H])[H])([H])([H])[H]

>  <h>  (10) 
<NA>

>  <Training>  (10) 
True

>  <Success>  (10) 
True

>  <enamine_searched>  (10) 
False

>  <enamine_id>  (10) 
nan

$$$$

     RDKit          3D

 57 62  0  0  0  0  0  0  0  0999 V2000
  -10.4471   -1.0579  -23.4071 C   0  0  0  0  0  0  0  0  0  0  0  0
   -9.0106   -1.3926  -23.0110 C   0  0  1  0  0  0  0  0  0  0  0  0
   -8.4331   -0.4709  -21.9210 C   0  0  0  0  0  0  0  0  0  0  0  0
   -7.4209   -1.2946  -21.2895 N   0  0  0  0  0  0  0  0  0  0  0  0
   -6.6030   -0.8101  -20.2385 C   0  0  0  0  0  0  0  0  0  0  0  0
   -6.9324   -1.0369  -18.9259 C   0  0  0  0  0  0  0  0  0  0  0  0
   -6.2714   -0.4858  -17.8769 N   0  0  0  0  0  0  0  0  0  0  0  0
   -5.2328    0.2700  -18.1310 C   0  0  0  0  0  0  0  0  0  0  0  0
   -4.7604    0.5566  -19.4432 C   0  0  0  0  0  0  0  0  0  0  0  0
   -3.6221    1.3714  -19.6774 C   0  0  0  0  0  0  0  0  0  0  0  0
   -3.2097    1.6269  -20.9566 C   0  0  0  0  0  0  0  0  0  0  0  0
   -3.9131    1.0836  -22.0560 C   0  0  0  0  0  0  0  0  0  0  0  0
   -5.0179    0.2914  -21.8537 C   0  0  0  0  0  0  0  0  0  0  0  0
   -5.4685    0.0116  -20.5364 C   0  0  0  0  0  0  0  0  0  0  0  0
   -5.5527   -0.1394  -22.6941 H   0  0  0  0  0  0  0  0  0  0  0  0
   -3.5765    1.2969  -23.0666 H   0  0  0  0  0  0  0  0  0  0  0  0
   -2.3384    2.2519  -21.1340 H   0  0  0  0  0  0  0  0  0  0  0  0
   -3.0964    1.7802  -18.8185 H   0  0  0  0  0  0  0  0  0  0  0  0
   -4.7072    0.7028  -17.2780 H   0  0  0  0  0  0  0  0  0  0  0  0
   -7.7766   -1.6733  -18.6642 H   0  0  0  0  0  0  0  0  0  0  0  0
   -7.5751   -2.6408  -21.5273 C   0  0  0  0  0  0  0  0  0  0  0  0
   -6.8290   -3.4846  -21.0753 O   0  0  0  0  0  0  0  0  0  0  0  0
   -8.7870   -2.8489  -22.4592 C   0  0  1  0  0  0  0  0  0  0  0  0
   -9.9794   -3.3326  -21.5912 C   0  0  0  0  0  0  0  0  0  0  0  0
  -11.1242   -3.8253  -22.3604 N   0  0  0  0  0  0  0  0  0  0  0  0
  -12.4788   -3.8583  -21.7939 C   0  0  0  0  0  0  0  0  0  0  0  0
  -13.3724   -2.7286  -22.2182 C   0  0  0  0  0  0  0  0  0  0  0  0
  -13.9960   -1.7486  -21.5263 C   0  0  0  0  0  0  0  0  0  0  0  0
  -14.7716   -1.0479  -22.4278 N   0  0  0  0  0  4  0  0  0  0  0  0
  -14.6080   -1.5779  -23.6476 C   0  0  0  0  0  0  0  0  0  0  0  0
  -13.7500   -2.5989  -23.5430 N   0  0  0  0  0  0  0  0  0  0  0  0
  -13.3889   -3.2317  -24.2604 H   0  0  0  0  0  0  0  0  0  0  0  0
  -15.0519   -1.2373  -24.5702 H   0  0  0  0  0  0  0  0  0  0  0  0
  -15.3749   -0.2774  -22.1609 H   0  0  0  0  0  0  0  0  0  0  0  0
  -13.9622   -1.4676  -20.4775 H   0  0  0  0  0  0  0  0  0  0  0  0
  -12.9586   -4.7556  -22.1975 H   0  0  0  0  0  0  0  0  0  0  0  0
  -12.4312   -3.9511  -20.7048 H   0  0  0  0  0  0  0  0  0  0  0  0
  -10.9638   -4.4747  -23.5464 C   0  0  0  0  0  0  0  0  0  0  0  0
  -11.9308   -4.8619  -24.2044 O   0  0  0  0  0  0  0  0  0  0  0  0
   -9.5585   -4.6810  -24.0036 C   0  0  0  0  0  0  0  0  0  0  0  0
   -9.3266   -5.6773  -24.9469 C   0  0  0  0  0  0  0  0  0  0  0  0
   -8.0562   -5.8944  -25.4432 C   0  0  0  0  0  0  0  0  0  0  0  0
   -7.0317   -5.0675  -24.9974 C   0  0  0  0  0  0  0  0  0  0  0  0
   -5.7982   -5.2479  -25.4958 F   0  0  0  0  0  0  0  0  0  0  0  0
   -7.2265   -4.0775  -24.0541 C   0  0  0  0  0  0  0  0  0  0  0  0
   -8.5084   -3.8913  -23.5194 C   0  0  0  0  0  0  0  0  0  0  0  0
   -6.3696   -3.5089  -23.7053 H   0  0  0  0  0  0  0  0  0  0  0  0
   -7.8410   -6.6929  -26.1445 H   0  0  0  0  0  0  0  0  0  0  0  0
  -10.1715   -6.2730  -25.2736 H   0  0  0  0  0  0  0  0  0  0  0  0
   -9.6136   -4.1217  -20.9313 H   0  0  0  0  0  0  0  0  0  0  0  0
  -10.2870   -2.4931  -20.9611 H   0  0  0  0  0  0  0  0  0  0  0  0
   -7.9905    0.4523  -22.3106 H   0  0  0  0  0  0  0  0  0  0  0  0
   -9.1985   -0.1650  -21.1919 H   0  0  0  0  0  0  0  0  0  0  0  0
   -8.3647   -1.3105  -23.8954 H   0  0  0  0  0  0  0  0  0  0  0  0
  -11.1175   -1.0847  -22.5408 H   0  0  0  0  0  0  0  0  0  0  0  0
  -10.8099   -1.7832  -24.1408 H   0  0  0  0  0  0  0  0  0  0  0  0
  -10.5331   -0.0627  -23.8504 H   0  0  0  0  0  0  0  0  0  0  0  0
  1  2  1  0
  2  3  1  0
  3  4  1  0
  4  5  1  0
  5  6  2  0
  6  7  1  0
  7  8  2  0
  8  9  1  0
  9 10  2  0
 10 11  1  0
 11 12  2  0
 12 13  1  0
 13 14  2  0
 13 15  1  0
 12 16  1  0
 11 17  1  0
 10 18  1  0
  8 19  1  0
  6 20  1  0
  4 21  1  0
 21 22  2  0
 21 23  1  0
 23 24  1  1
 24 25  1  0
 25 26  1  0
 26 27  1  0
 27 28  2  0
 28 29  1  0
 29 30  2  0
 30 31  1  0
 31 32  1  0
 30 33  1  0
 29 34  1  0
 28 35  1  0
 26 36  1  0
 26 37  1  0
 25 38  1  0
 38 39  2  0
 38 40  1  0
 40 41  2  0
 41 42  1  0
 42 43  2  0
 43 44  1  0
 43 45  1  0
 45 46  2  0
 45 47  1  0
 42 48  1  0
 41 49  1  0
 24 50  1  0
 24 51  1  0
  3 52  1  0
  3 53  1  0
  2 54  1  6
  1 55  1  0
  1 56  1  0
  1 57  1  0
 23  2  1  0
 31 27  1  0
 46 40  1  0
 14  5  1  0
 46 23  1  0
 14  9  1  0
M  CHG  1  29   1
M  END
>  <cnnaffinities>  (11) 
[6.72848]

>  <score>  (11) 
6.72848

>  <index>  (11) 
10

>  <Smiles>  (11) 
C([C@]1(C(N(c2c(nc(c3c(c(c(c(c23)[H])[H])[H])[H])[H])[H])C(=O)[C@]21C(N(C(c1c([n+](c(n1[H])[H])[H])[H])([H])[H])C(=O)c1c(c(c(F)c(c21)[H])[H])[H])([H])[H])([H])[H])[H])([H])([H])[H]

>  <h>  (11) 
<NA>

>  <Training>  (11) 
True

>  <Success>  (11) 
True

>  <enamine_searched>  (11) 
False

>  <enamine_id>  (11) 
nan

$$$$

     RDKit          3D

 48 52  0  0  0  0  0  0  0  0999 V2000
   -9.8148   -0.9917  -23.9204 C   0  0  0  0  0  0  0  0  0  0  0  0
   -8.7589   -1.4033  -23.0211 N   0  0  0  0  0  0  0  0  0  0  0  0
   -8.4997   -0.7635  -21.8358 C   0  0  0  0  0  0  0  0  0  0  0  0
   -9.1034    0.1625  -21.3449 O   0  0  0  0  0  0  0  0  0  0  0  0
   -7.3713   -1.3972  -21.2806 N   0  0  0  0  0  0  0  0  0  0  0  0
   -6.5897   -0.8243  -20.2274 C   0  0  0  0  0  0  0  0  0  0  0  0
   -6.9175   -1.0454  -18.9184 C   0  0  0  0  0  0  0  0  0  0  0  0
   -6.2343   -0.5256  -17.8664 N   0  0  0  0  0  0  0  0  0  0  0  0
   -5.1857    0.2135  -18.1109 C   0  0  0  0  0  0  0  0  0  0  0  0
   -4.7251    0.5253  -19.4167 C   0  0  0  0  0  0  0  0  0  0  0  0
   -3.5946    1.3563  -19.6413 C   0  0  0  0  0  0  0  0  0  0  0  0
   -3.2041    1.6543  -20.9157 C   0  0  0  0  0  0  0  0  0  0  0  0
   -3.9254    1.1351  -22.0137 C   0  0  0  0  0  0  0  0  0  0  0  0
   -5.0181    0.3330  -21.8190 C   0  0  0  0  0  0  0  0  0  0  0  0
   -5.4486   -0.0006  -20.5097 C   0  0  0  0  0  0  0  0  0  0  0  0
   -5.5797   -0.0496  -22.6642 H   0  0  0  0  0  0  0  0  0  0  0  0
   -3.6215    1.3788  -23.0254 H   0  0  0  0  0  0  0  0  0  0  0  0
   -2.3517    2.3039  -21.0944 H   0  0  0  0  0  0  0  0  0  0  0  0
   -3.0719    1.7619  -18.7792 H   0  0  0  0  0  0  0  0  0  0  0  0
   -4.6413    0.6043  -17.2503 H   0  0  0  0  0  0  0  0  0  0  0  0
   -7.7603   -1.6782  -18.6518 H   0  0  0  0  0  0  0  0  0  0  0  0
   -6.9153   -2.4300  -22.0999 C   0  0  0  0  0  0  0  0  0  0  0  0
   -5.9598   -3.1291  -21.8748 O   0  0  0  0  0  0  0  0  0  0  0  0
   -7.8293   -2.4573  -23.3185 C   0  0  0  0  0  0  0  0  0  0  0  0
   -8.3853   -3.8482  -23.7176 C   0  0  0  0  0  0  0  0  0  0  0  0
   -7.6379   -3.8065  -24.9969 N   0  0  0  0  0  0  0  0  0  0  0  0
   -8.5463   -3.8900  -26.4234 S   0  0  0  0  0  0  0  0  0  0  0  0
   -7.5942   -3.8514  -27.5136 O   0  0  0  0  0  0  0  0  0  0  0  0
   -9.6221   -2.9133  -26.3152 O   0  0  0  0  0  0  0  0  0  0  0  0
   -9.3167   -5.4848  -26.4158 C   0  0  0  0  0  0  0  0  0  0  0  0
   -8.6026   -6.5746  -26.8946 C   0  0  0  0  0  0  0  0  0  0  0  0
   -9.2533   -7.7966  -26.9714 C   0  0  0  0  0  0  0  0  0  0  0  0
  -10.5647   -7.9389  -26.5495 C   0  0  0  0  0  0  0  0  0  0  0  0
  -11.2737   -6.8370  -26.0787 C   0  0  0  0  0  0  0  0  0  0  0  0
  -10.6512   -5.5973  -26.0276 C   0  0  0  0  0  0  0  0  0  0  0  0
  -11.1973   -4.7136  -25.7098 H   0  0  0  0  0  0  0  0  0  0  0  0
  -12.3130   -6.9273  -25.7753 H   0  0  0  0  0  0  0  0  0  0  0  0
  -11.0068   -8.9285  -26.6277 H   0  0  0  0  0  0  0  0  0  0  0  0
   -8.7842   -8.6509  -27.4268 H   0  0  0  0  0  0  0  0  0  0  0  0
   -7.5765   -6.4563  -27.2297 H   0  0  0  0  0  0  0  0  0  0  0  0
   -7.0946   -2.4446  -24.6856 C   0  0  0  0  0  0  0  0  0  0  0  0
   -7.3843   -1.6472  -25.3808 H   0  0  0  0  0  0  0  0  0  0  0  0
   -6.0087   -2.4860  -24.6036 H   0  0  0  0  0  0  0  0  0  0  0  0
   -8.0157   -4.6643  -23.0998 H   0  0  0  0  0  0  0  0  0  0  0  0
   -9.4762   -3.9204  -23.8115 H   0  0  0  0  0  0  0  0  0  0  0  0
  -10.4608   -1.8434  -24.1595 H   0  0  0  0  0  0  0  0  0  0  0  0
   -9.3991   -0.5970  -24.8554 H   0  0  0  0  0  0  0  0  0  0  0  0
  -10.3751   -0.2118  -23.4035 H   0  0  0  0  0  0  0  0  0  0  0  0
  1  2  1  0
  2  3  1  0
  3  4  2  0
  3  5  1  0
  5  6  1  0
  6  7  2  0
  7  8  1  0
  8  9  2  0
  9 10  1  0
 10 11  2  0
 11 12  1  0
 12 13  2  0
 13 14  1  0
 14 15  2  0
 14 16  1  0
 13 17  1  0
 12 18  1  0
 11 19  1  0
  9 20  1  0
  7 21  1  0
  5 22  1  0
 22 23  2  0
 22 24  1  0
 24 25  1  0
 25 26  1  0
 26 27  1  0
 27 28  2  0
 27 29  2  0
 27 30  1  0
 30 31  2  0
 31 32  1  0
 32 33  2  0
 33 34  1  0
 34 35  2  0
 35 36  1  0
 34 37  1  0
 33 38  1  0
 32 39  1  0
 31 40  1  0
 26 41  1  0
 41 42  1  0
 41 43  1  0
 25 44  1  0
 25 45  1  0
  1 46  1  0
  1 47  1  0
  1 48  1  0
 24  2  1  0
 35 30  1  0
 15  6  1  0
 41 24  1  0
 15 10  1  0
M  END
>  <cnnaffinities>  (12) 
[5.67992, 5.68406, 6.07862, 5.69305, 5.70096, 5.69779, 5.6798, 5.39725, 6.07502]

>  <score>  (12) 
5.67992

>  <index>  (12) 
11

>  <Smiles>  (12) 
C(N1C(=O)N(c2c(nc(c3c(c(c(c(c23)[H])[H])[H])[H])[H])[H])C(=O)C21C(N(S(=O)(=O)c1c(c(c(c(c1[H])[H])[H])[H])[H])C2([H])[H])([H])[H])([H])([H])[H]

>  <h>  (12) 
<NA>

>  <Training>  (12) 
True

>  <Success>  (12) 
True

>  <enamine_searched>  (12) 
False

>  <enamine_id>  (12) 
nan

$$$$

     RDKit          3D

 76 82  0  0  0  0  0  0  0  0999 V2000
  -11.2175    1.6511  -23.5177 O   0  0  0  0  0  0  0  0  0  0  0  0
  -10.6830    0.5537  -23.6297 C   0  0  0  0  0  0  0  0  0  0  0  0
  -11.3669   -0.7184  -23.2134 C   0  0  0  0  0  0  0  0  0  0  0  0
  -12.7575   -0.7367  -23.2083 C   0  0  0  0  0  0  0  0  0  0  0  0
  -13.4255   -1.8362  -22.7085 C   0  0  0  0  0  0  0  0  0  0  0  0
  -12.6974   -2.9091  -22.2018 C   0  0  0  0  0  0  0  0  0  0  0  0
  -13.5981   -4.1779  -21.4191 Cl  0  0  0  0  0  0  0  0  0  0  0  0
  -11.3111   -2.9292  -22.2428 C   0  0  0  0  0  0  0  0  0  0  0  0
  -10.6213   -1.8255  -22.7722 C   0  0  0  0  0  0  0  0  0  0  0  0
   -9.1086   -1.7011  -22.8192 C   0  0  1  0  0  0  0  0  0  0  0  0
   -8.7757   -0.8975  -24.1104 C   0  0  0  0  0  0  0  0  0  0  0  0
   -9.4342    0.3946  -24.1379 N   0  0  0  0  0  0  0  0  0  0  0  0
   -8.6705    1.5754  -24.4940 C   0  0  0  0  0  0  0  0  0  0  0  0
   -8.0721    2.2350  -23.2522 C   0  0  0  0  0  0  0  0  0  0  0  0
   -7.2482    3.4296  -23.5326 N   0  0  0  0  0  4  0  0  0  0  0  0
   -6.0626    3.1492  -24.4395 C   0  0  0  0  0  0  0  0  0  0  0  0
   -5.0403    4.2785  -24.2848 C   0  0  0  0  0  0  0  0  0  0  0  0
   -5.7279    5.4600  -23.9354 O   0  0  0  0  0  0  0  0  0  0  0  0
   -6.0770    5.4021  -22.5678 C   0  0  0  0  0  0  0  0  0  0  0  0
   -6.8271    4.0955  -22.2512 C   0  0  0  0  0  0  0  0  0  0  0  0
   -7.7195    4.2844  -21.6465 H   0  0  0  0  0  0  0  0  0  0  0  0
   -6.1903    3.3959  -21.6967 H   0  0  0  0  0  0  0  0  0  0  0  0
   -5.1627    5.4671  -21.9602 H   0  0  0  0  0  0  0  0  0  0  0  0
   -6.6806    6.2891  -22.3636 H   0  0  0  0  0  0  0  0  0  0  0  0
   -4.2962    4.0356  -23.5084 H   0  0  0  0  0  0  0  0  0  0  0  0
   -4.5024    4.4716  -25.2184 H   0  0  0  0  0  0  0  0  0  0  0  0
   -6.4221    3.1214  -25.4701 H   0  0  0  0  0  0  0  0  0  0  0  0
   -5.6364    2.1749  -24.1856 H   0  0  0  0  0  0  0  0  0  0  0  0
   -7.8410    4.1225  -24.0261 H   0  0  0  0  0  0  0  0  0  0  0  0
   -7.4582    1.4951  -22.7266 H   0  0  0  0  0  0  0  0  0  0  0  0
   -8.8812    2.5042  -22.5658 H   0  0  0  0  0  0  0  0  0  0  0  0
   -9.3416    2.2558  -25.0219 H   0  0  0  0  0  0  0  0  0  0  0  0
   -7.8907    1.2443  -25.1908 H   0  0  0  0  0  0  0  0  0  0  0  0
   -9.1104   -1.4919  -24.9682 H   0  0  0  0  0  0  0  0  0  0  0  0
   -7.6969   -0.7236  -24.1781 H   0  0  0  0  0  0  0  0  0  0  0  0
   -8.5990   -0.9238  -21.5850 C   0  0  0  0  0  0  0  0  0  0  0  0
   -9.1570    0.0005  -21.0165 O   0  0  0  0  0  0  0  0  0  0  0  0
   -7.3776   -1.4342  -21.2189 N   0  0  0  0  0  0  0  0  0  0  0  0
   -6.5991   -0.8273  -20.1984 C   0  0  0  0  0  0  0  0  0  0  0  0
   -6.9253   -1.0279  -18.8807 C   0  0  0  0  0  0  0  0  0  0  0  0
   -6.2390   -0.5026  -17.8376 N   0  0  0  0  0  0  0  0  0  0  0  0
   -5.1864    0.2305  -18.1012 C   0  0  0  0  0  0  0  0  0  0  0  0
   -4.7398    0.5275  -19.4187 C   0  0  0  0  0  0  0  0  0  0  0  0
   -3.6086    1.3537  -19.6478 C   0  0  0  0  0  0  0  0  0  0  0  0
   -3.2069    1.6405  -20.9249 C   0  0  0  0  0  0  0  0  0  0  0  0
   -3.9212    1.1175  -22.0239 C   0  0  0  0  0  0  0  0  0  0  0  0
   -5.0216    0.3126  -21.8270 C   0  0  0  0  0  0  0  0  0  0  0  0
   -5.4619   -0.0105  -20.5111 C   0  0  0  0  0  0  0  0  0  0  0  0
   -5.5642   -0.0760  -22.6835 H   0  0  0  0  0  0  0  0  0  0  0  0
   -3.5968    1.3524  -23.0352 H   0  0  0  0  0  0  0  0  0  0  0  0
   -2.3498    2.2868  -21.0939 H   0  0  0  0  0  0  0  0  0  0  0  0
   -3.0849    1.7609  -18.7886 H   0  0  0  0  0  0  0  0  0  0  0  0
   -4.6233    0.6284  -17.2548 H   0  0  0  0  0  0  0  0  0  0  0  0
   -7.7808   -1.6495  -18.6216 H   0  0  0  0  0  0  0  0  0  0  0  0
   -6.9740   -2.5959  -21.9920 C   0  0  0  0  0  0  0  0  0  0  0  0
   -8.2777   -3.0077  -22.7013 C   0  0  2  0  0  0  0  0  0  0  0  0
   -8.0850   -3.8850  -23.9465 C   0  0  0  0  0  0  0  0  0  0  0  0
   -7.1760   -3.3457  -24.9401 N   0  0  0  0  0  0  0  0  0  0  0  0
   -7.4458   -3.3314  -26.2790 C   0  0  0  0  0  0  0  0  0  0  0  0
   -6.4025   -2.9676  -27.0494 N   0  0  0  0  0  0  0  0  0  0  0  0
   -6.6635   -2.8373  -28.3337 C   0  0  0  0  0  0  0  0  0  0  0  0
   -7.9022   -3.1145  -28.8890 C   0  0  0  0  0  0  0  0  0  0  0  0
   -8.8869   -3.5339  -28.0166 C   0  0  0  0  0  0  0  0  0  0  0  0
   -8.6818   -3.6302  -26.6990 N   0  0  0  0  0  0  0  0  0  0  0  0
   -9.8835   -3.7968  -28.3718 H   0  0  0  0  0  0  0  0  0  0  0  0
   -8.0504   -2.9983  -29.9468 H   0  0  0  0  0  0  0  0  0  0  0  0
   -5.8238   -2.4838  -28.9267 H   0  0  0  0  0  0  0  0  0  0  0  0
   -6.1894   -3.2843  -24.7382 H   0  0  0  0  0  0  0  0  0  0  0  0
   -7.7563   -4.8842  -23.6248 H   0  0  0  0  0  0  0  0  0  0  0  0
   -9.0466   -4.0120  -24.4429 H   0  0  0  0  0  0  0  0  0  0  0  0
   -8.8308   -3.6239  -21.9853 H   0  0  0  0  0  0  0  0  0  0  0  0
   -6.1687   -2.3304  -22.6904 H   0  0  0  0  0  0  0  0  0  0  0  0
   -6.6014   -3.3856  -21.3324 H   0  0  0  0  0  0  0  0  0  0  0  0
  -10.7870   -3.7792  -21.8215 H   0  0  0  0  0  0  0  0  0  0  0  0
  -14.5050   -1.8609  -22.6422 H   0  0  0  0  0  0  0  0  0  0  0  0
  -13.2893    0.1220  -23.6085 H   0  0  0  0  0  0  0  0  0  0  0  0
  1  2  2  0
  2  3  1  0
  3  4  2  0
  4  5  1  0
  5  6  2  0
  6  7  1  0
  6  8  1  0
  8  9  2  0
  9 10  1  0
 10 11  1  6
 11 12  1  0
 12 13  1  0
 13 14  1  0
 14 15  1  0
 15 16  1  0
 16 17  1  0
 17 18  1  0
 18 19  1  0
 19 20  1  0
 20 21  1  0
 20 22  1  0
 19 23  1  0
 19 24  1  0
 17 25  1  0
 17 26  1  0
 16 27  1  0
 16 28  1  0
 15 29  1  0
 14 30  1  0
 14 31  1  0
 13 32  1  0
 13 33  1  0
 11 34  1  0
 11 35  1  0
 10 36  1  0
 36 37  2  0
 36 38  1  0
 38 39  1  0
 39 40  2  0
 40 41  1  0
 41 42  2  0
 42 43  1  0
 43 44  2  0
 44 45  1  0
 45 46  2  0
 46 47  1  0
 47 48  2  0
 47 49  1  0
 46 50  1  0
 45 51  1  0
 44 52  1  0
 42 53  1  0
 40 54  1  0
 38 55  1  0
 55 56  1  0
 56 57  1  0
 57 58  1  0
 58 59  1  0
 59 60  2  0
 60 61  1  0
 61 62  2  0
 62 63  1  0
 63 64  2  0
 63 65  1  0
 62 66  1  0
 61 67  1  0
 58 68  1  0
 57 69  1  0
 57 70  1  0
 56 71  1  1
 55 72  1  0
 55 73  1  0
  8 74  1  0
  5 75  1  0
  4 76  1  0
 12  2  1  0
 20 15  1  0
 48 39  1  0
 64 59  1  0
  9  3  1  0
 56 10  1  0
 48 43  1  0
M  CHG  1  15   1
M  END
>  <cnnaffinities>  (13) 
[6.29056]

>  <score>  (13) 
6.29056

>  <index>  (13) 
12

>  <Smiles>  (13) 
O=C1c2c(c(c(Cl)c(c2[C@@]2(C(N1C(C([N+]1(C(C(OC(C1([H])[H])([H])[H])([H])[H])([H])[H])[H])([H])[H])([H])[H])([H])[H])C(=O)N(c1c(nc(c3c(c(c(c(c13)[H])[H])[H])[H])[H])[H])C([C@@]2(C(N(c1nc(c(c(n1)[H])[H])[H])[H])([H])[H])[H])([H])[H])[H])[H])[H]

>  <h>  (13) 
<NA>

>  <Training>  (13) 
True

>  <Success>  (13) 
True

>  <enamine_searched>  (13) 
False

>  <enamine_id>  (13) 
nan

$$$$

     RDKit          3D

 69 74  0  0  0  0  0  0  0  0999 V2000
   -7.4152    3.3413  -21.7567 C   0  0  0  0  0  0  0  0  0  0  0  0
   -8.4426    2.8396  -22.6454 N   0  0  0  0  0  0  0  0  0  0  0  0
   -8.0374    2.1034  -23.7087 C   0  0  0  0  0  0  0  0  0  0  0  0
   -6.8613    1.8466  -23.9244 O   0  0  0  0  0  0  0  0  0  0  0  0
   -9.1377    1.5837  -24.6212 C   0  0  0  0  0  0  0  0  0  0  0  0
   -9.7567    0.4126  -24.0445 N   0  0  0  0  0  0  0  0  0  0  0  0
   -9.0052   -0.8302  -24.0491 C   0  0  0  0  0  0  0  0  0  0  0  0
   -9.2316   -1.6303  -22.7394 C   0  0  2  0  0  0  0  0  0  0  0  0
   -8.6361   -0.8262  -21.5564 C   0  0  0  0  0  0  0  0  0  0  0  0
   -9.1111    0.1556  -21.0191 O   0  0  0  0  0  0  0  0  0  0  0  0
   -7.4271   -1.3867  -21.2181 N   0  0  0  0  0  0  0  0  0  0  0  0
   -6.6220   -0.8066  -20.2065 C   0  0  0  0  0  0  0  0  0  0  0  0
   -6.9534   -1.0009  -18.8893 C   0  0  0  0  0  0  0  0  0  0  0  0
   -6.2603   -0.4925  -17.8463 N   0  0  0  0  0  0  0  0  0  0  0  0
   -5.2003    0.2276  -18.1143 C   0  0  0  0  0  0  0  0  0  0  0  0
   -4.7515    0.5229  -19.4296 C   0  0  0  0  0  0  0  0  0  0  0  0
   -3.6225    1.3517  -19.6622 C   0  0  0  0  0  0  0  0  0  0  0  0
   -3.2381    1.6558  -20.9379 C   0  0  0  0  0  0  0  0  0  0  0  0
   -3.9617    1.1435  -22.0371 C   0  0  0  0  0  0  0  0  0  0  0  0
   -5.0589    0.3360  -21.8388 C   0  0  0  0  0  0  0  0  0  0  0  0
   -5.4807   -0.0032  -20.5242 C   0  0  0  0  0  0  0  0  0  0  0  0
   -5.6276   -0.0039  -22.6987 H   0  0  0  0  0  0  0  0  0  0  0  0
   -3.6561    1.4002  -23.0464 H   0  0  0  0  0  0  0  0  0  0  0  0
   -2.3833    2.3031  -21.1105 H   0  0  0  0  0  0  0  0  0  0  0  0
   -3.0916    1.7485  -18.8012 H   0  0  0  0  0  0  0  0  0  0  0  0
   -4.6386    0.6257  -17.2685 H   0  0  0  0  0  0  0  0  0  0  0  0
   -7.8223   -1.6052  -18.6413 H   0  0  0  0  0  0  0  0  0  0  0  0
   -7.0812   -2.5629  -21.9945 C   0  0  0  0  0  0  0  0  0  0  0  0
   -8.3997   -2.9436  -22.6908 C   0  0  2  0  0  0  0  0  0  0  0  0
   -8.1575   -3.6927  -24.0070 C   0  0  0  0  0  0  0  0  0  0  0  0
   -9.3986   -4.1219  -24.6109 N   0  0  0  0  0  0  0  0  0  0  0  0
   -9.4342   -4.7533  -25.8154 C   0  0  0  0  0  0  0  0  0  0  0  0
  -10.6577   -5.1743  -26.3792 C   0  0  0  0  0  0  0  0  0  0  0  0
  -10.5842   -5.7811  -27.6117 C   0  0  0  0  0  0  0  0  0  0  0  0
   -9.4342   -5.9810  -28.2707 N   0  0  0  0  0  0  0  0  0  0  0  0
   -8.3319   -5.5642  -27.6467 C   0  0  0  0  0  0  0  0  0  0  0  0
   -7.0313   -5.8183  -28.3666 C   0  0  0  0  0  0  0  0  0  0  0  0
   -7.2064   -5.7701  -29.4472 H   0  0  0  0  0  0  0  0  0  0  0  0
   -6.6707   -6.8302  -28.1362 H   0  0  0  0  0  0  0  0  0  0  0  0
   -6.2628   -5.0965  -28.0700 H   0  0  0  0  0  0  0  0  0  0  0  0
   -8.2700   -4.9622  -26.4495 N   0  0  0  0  0  0  0  0  0  0  0  0
  -11.4846   -6.1306  -28.1206 H   0  0  0  0  0  0  0  0  0  0  0  0
  -11.6080   -5.0349  -25.8687 H   0  0  0  0  0  0  0  0  0  0  0  0
  -10.2729   -3.9345  -24.1398 H   0  0  0  0  0  0  0  0  0  0  0  0
   -7.5292   -4.5748  -23.8223 H   0  0  0  0  0  0  0  0  0  0  0  0
   -7.6131   -3.0630  -24.7265 H   0  0  0  0  0  0  0  0  0  0  0  0
   -8.9249   -3.6343  -22.0224 H   0  0  0  0  0  0  0  0  0  0  0  0
   -6.2911   -2.3402  -22.7277 H   0  0  0  0  0  0  0  0  0  0  0  0
   -6.7199   -3.3675  -21.3464 H   0  0  0  0  0  0  0  0  0  0  0  0
  -10.7261   -1.7812  -22.5370 C   0  0  0  0  0  0  0  0  0  0  0  0
  -11.2861   -2.8370  -21.8109 C   0  0  0  0  0  0  0  0  0  0  0  0
  -12.6509   -2.8705  -21.5871 C   0  0  0  0  0  0  0  0  0  0  0  0
  -13.3110   -4.0857  -20.5386 Cl  0  0  0  0  0  0  0  0  0  0  0  0
  -13.5144   -1.9349  -22.1490 C   0  0  0  0  0  0  0  0  0  0  0  0
  -12.9646   -0.8715  -22.8358 C   0  0  0  0  0  0  0  0  0  0  0  0
  -11.5805   -0.7475  -22.9544 C   0  0  0  0  0  0  0  0  0  0  0  0
  -10.9883    0.5371  -23.4715 C   0  0  0  0  0  0  0  0  0  0  0  0
  -11.5462    1.6269  -23.3652 O   0  0  0  0  0  0  0  0  0  0  0  0
  -13.6042   -0.1153  -23.2765 H   0  0  0  0  0  0  0  0  0  0  0  0
  -14.5828   -2.0146  -21.9809 H   0  0  0  0  0  0  0  0  0  0  0  0
  -10.6890   -3.6096  -21.3410 H   0  0  0  0  0  0  0  0  0  0  0  0
   -7.9406   -0.5974  -24.1581 H   0  0  0  0  0  0  0  0  0  0  0  0
   -9.3066   -1.4369  -24.9106 H   0  0  0  0  0  0  0  0  0  0  0  0
   -8.7184    1.3481  -25.6070 H   0  0  0  0  0  0  0  0  0  0  0  0
   -9.9071    2.3417  -24.7214 H   0  0  0  0  0  0  0  0  0  0  0  0
   -9.4006    2.8065  -22.3154 H   0  0  0  0  0  0  0  0  0  0  0  0
   -6.7664    2.5079  -21.4552 H   0  0  0  0  0  0  0  0  0  0  0  0
   -6.8123    4.1058  -22.2569 H   0  0  0  0  0  0  0  0  0  0  0  0
   -7.8889    3.8036  -20.8944 H   0  0  0  0  0  0  0  0  0  0  0  0
  1  2  1  0
  2  3  1  0
  3  4  2  0
  3  5  1  0
  5  6  1  0
  6  7  1  0
  8  7  1  6
  8  9  1  0
  9 10  2  0
  9 11  1  0
 11 12  1  0
 12 13  2  0
 13 14  1  0
 14 15  2  0
 15 16  1  0
 16 17  2  0
 17 18  1  0
 18 19  2  0
 19 20  1  0
 20 21  2  0
 20 22  1  0
 19 23  1  0
 18 24  1  0
 17 25  1  0
 15 26  1  0
 13 27  1  0
 11 28  1  0
 28 29  1  0
 29 30  1  0
 30 31  1  0
 31 32  1  0
 32 33  2  0
 33 34  1  0
 34 35  2  0
 35 36  1  0
 36 37  1  0
 37 38  1  0
 37 39  1  0
 37 40  1  0
 36 41  2  0
 34 42  1  0
 33 43  1  0
 31 44  1  0
 30 45  1  0
 30 46  1  0
 29 47  1  1
 28 48  1  0
 28 49  1  0
  8 50  1  0
 50 51  2  0
 51 52  1  0
 52 53  1  0
 52 54  2  0
 54 55  1  0
 55 56  2  0
 56 57  1  0
 57 58  2  0
 55 59  1  0
 54 60  1  0
 51 61  1  0
  7 62  1  0
  7 63  1  0
  5 64  1  0
  5 65  1  0
  2 66  1  0
  1 67  1  0
  1 68  1  0
  1 69  1  0
 57  6  1  0
 29  8  1  0
 41 32  1  0
 56 50  1  0
 21 12  1  0
 21 16  1  0
M  END
>  <cnnaffinities>  (14) 
[6.54166]

>  <score>  (14) 
6.54166

>  <index>  (14) 
13

>  <Smiles>  (14) 
C(N(C(=O)C(N1C([C@@]2(C(=O)N(c3c(nc(c4c(c(c(c(c34)[H])[H])[H])[H])[H])[H])C([C@@]2(C(N(c2c(c(nc(C([H])([H])[H])n2)[H])[H])[H])([H])[H])[H])([H])[H])c2c(c(Cl)c(c(c2C1=O)[H])[H])[H])([H])[H])([H])[H])[H])([H])([H])[H]

>  <h>  (14) 
<NA>

>  <Training>  (14) 
True

>  <Success>  (14) 
True

>  <enamine_searched>  (14) 
False

>  <enamine_id>  (14) 
nan

$$$$

     RDKit          3D

 73 78  0  0  0  0  0  0  0  0999 V2000
   -8.4183   -4.1661  -23.4080 C   0  0  0  0  0  0  0  0  0  0  0  0
   -8.5337   -2.9401  -22.5200 C   0  0  1  0  0  0  0  0  0  0  0  0
   -7.3374   -2.6898  -21.6060 C   0  0  0  0  0  0  0  0  0  0  0  0
   -7.4266   -1.2715  -21.3355 N   0  0  0  0  0  0  0  0  0  0  0  0
   -6.6544   -0.6762  -20.3108 C   0  0  0  0  0  0  0  0  0  0  0  0
   -6.9779   -0.9343  -19.0036 C   0  0  0  0  0  0  0  0  0  0  0  0
   -6.3126   -0.4434  -17.9332 N   0  0  0  0  0  0  0  0  0  0  0  0
   -5.2544    0.2928  -18.1665 C   0  0  0  0  0  0  0  0  0  0  0  0
   -4.7717    0.5950  -19.4703 C   0  0  0  0  0  0  0  0  0  0  0  0
   -3.6046    1.3806  -19.6649 C   0  0  0  0  0  0  0  0  0  0  0  0
   -3.1421    1.6345  -20.9260 C   0  0  0  0  0  0  0  0  0  0  0  0
   -3.8196    1.1089  -22.0492 C   0  0  0  0  0  0  0  0  0  0  0  0
   -4.9544    0.3520  -21.8877 C   0  0  0  0  0  0  0  0  0  0  0  0
   -5.4747    0.0897  -20.5889 C   0  0  0  0  0  0  0  0  0  0  0  0
   -5.4592   -0.0541  -22.7599 H   0  0  0  0  0  0  0  0  0  0  0  0
   -3.4402    1.3109  -23.0463 H   0  0  0  0  0  0  0  0  0  0  0  0
   -2.2581    2.2499  -21.0743 H   0  0  0  0  0  0  0  0  0  0  0  0
   -3.0965    1.7793  -18.7910 H   0  0  0  0  0  0  0  0  0  0  0  0
   -4.7123    0.6782  -17.3016 H   0  0  0  0  0  0  0  0  0  0  0  0
   -7.8365   -1.5664  -18.7789 H   0  0  0  0  0  0  0  0  0  0  0  0
   -8.2792   -0.5877  -22.1808 C   0  0  0  0  0  0  0  0  0  0  0  0
   -8.5185    0.6009  -22.1056 O   0  0  0  0  0  0  0  0  0  0  0  0
   -8.7829   -1.5787  -23.2499 C   0  0  1  0  0  0  0  0  0  0  0  0
   -7.8994   -1.3246  -24.5153 C   0  0  0  0  0  0  0  0  0  0  0  0
   -8.4190   -1.8710  -25.7646 N   0  0  0  0  0  0  0  0  0  0  0  0
   -7.5372   -2.1008  -26.9100 C   0  0  0  0  0  0  0  0  0  0  0  0
   -7.0639   -3.5488  -27.0478 C   0  0  0  0  0  0  0  0  0  0  0  0
   -8.1827   -4.5428  -27.1538 N   0  0  0  0  0  4  0  0  0  0  0  0
   -7.7206   -5.9097  -26.7072 C   0  0  0  0  0  0  0  0  0  0  0  0
   -8.5901   -7.0348  -27.2635 C   0  0  0  0  0  0  0  0  0  0  0  0
   -8.5763   -7.0827  -28.7390 N   0  0  0  0  0  0  0  0  0  0  0  0
   -7.7131   -8.3086  -29.5201 S   0  0  0  0  0  0  0  0  0  0  0  0
   -7.6905   -7.9360  -30.9269 O   0  0  0  0  0  0  0  0  0  0  0  0
   -6.4625   -8.5398  -28.8086 O   0  0  0  0  0  0  0  0  0  0  0  0
   -8.6743   -9.8245  -29.4160 C   0  0  0  0  0  0  0  0  0  0  0  0
   -9.4015   -9.8313  -30.2301 H   0  0  0  0  0  0  0  0  0  0  0  0
   -7.9685  -10.6478  -29.5457 H   0  0  0  0  0  0  0  0  0  0  0  0
   -9.1666   -9.9129  -28.4431 H   0  0  0  0  0  0  0  0  0  0  0  0
   -8.2548   -5.7717  -29.3463 C   0  0  0  0  0  0  0  0  0  0  0  0
   -8.8147   -4.6204  -28.5286 C   0  0  0  0  0  0  0  0  0  0  0  0
   -9.8959   -4.7210  -28.4020 H   0  0  0  0  0  0  0  0  0  0  0  0
   -8.6240   -3.6800  -29.0469 H   0  0  0  0  0  0  0  0  0  0  0  0
   -7.1679   -5.6318  -29.4622 H   0  0  0  0  0  0  0  0  0  0  0  0
   -8.6872   -5.7941  -30.3384 H   0  0  0  0  0  0  0  0  0  0  0  0
   -9.6290   -6.8855  -26.9424 H   0  0  0  0  0  0  0  0  0  0  0  0
   -8.2506   -7.9836  -26.8520 H   0  0  0  0  0  0  0  0  0  0  0  0
   -6.6864   -6.0544  -27.0415 H   0  0  0  0  0  0  0  0  0  0  0  0
   -7.7181   -5.9401  -25.6137 H   0  0  0  0  0  0  0  0  0  0  0  0
   -8.9327   -4.2261  -26.5248 H   0  0  0  0  0  0  0  0  0  0  0  0
   -6.4184   -3.6411  -27.9294 H   0  0  0  0  0  0  0  0  0  0  0  0
   -6.4604   -3.8149  -26.1737 H   0  0  0  0  0  0  0  0  0  0  0  0
   -6.6670   -1.4380  -26.8455 H   0  0  0  0  0  0  0  0  0  0  0  0
   -8.1010   -1.8243  -27.8033 H   0  0  0  0  0  0  0  0  0  0  0  0
   -9.7509   -1.9820  -26.0024 C   0  0  0  0  0  0  0  0  0  0  0  0
  -10.1823   -2.4606  -27.0527 O   0  0  0  0  0  0  0  0  0  0  0  0
  -10.6863   -1.5941  -24.9124 C   0  0  0  0  0  0  0  0  0  0  0  0
  -12.0393   -1.5815  -25.2306 C   0  0  0  0  0  0  0  0  0  0  0  0
  -12.9937   -1.4538  -24.2432 C   0  0  0  0  0  0  0  0  0  0  0  0
  -12.5735   -1.3527  -22.9174 C   0  0  0  0  0  0  0  0  0  0  0  0
  -13.8087   -1.3048  -21.6932 Cl  0  0  0  0  0  0  0  0  0  0  0  0
  -11.2255   -1.3497  -22.5868 C   0  0  0  0  0  0  0  0  0  0  0  0
  -10.2505   -1.4337  -23.5969 C   0  0  0  0  0  0  0  0  0  0  0  0
  -10.9270   -1.3356  -21.5457 H   0  0  0  0  0  0  0  0  0  0  0  0
  -14.0479   -1.5001  -24.4867 H   0  0  0  0  0  0  0  0  0  0  0  0
  -12.3147   -1.7191  -26.2706 H   0  0  0  0  0  0  0  0  0  0  0  0
   -6.9037   -1.7571  -24.3510 H   0  0  0  0  0  0  0  0  0  0  0  0
   -7.7858   -0.2346  -24.6047 H   0  0  0  0  0  0  0  0  0  0  0  0
   -6.3815   -2.9535  -22.0822 H   0  0  0  0  0  0  0  0  0  0  0  0
   -7.3954   -3.2477  -20.6711 H   0  0  0  0  0  0  0  0  0  0  0  0
   -9.4061   -3.0717  -21.8653 H   0  0  0  0  0  0  0  0  0  0  0  0
   -7.5319   -4.0989  -24.0482 H   0  0  0  0  0  0  0  0  0  0  0  0
   -8.3297   -5.0755  -22.8050 H   0  0  0  0  0  0  0  0  0  0  0  0
   -9.2999   -4.2617  -24.0531 H   0  0  0  0  0  0  0  0  0  0  0  0
  1  2  1  0
  2  3  1  0
  3  4  1  0
  4  5  1  0
  5  6  2  0
  6  7  1  0
  7  8  2  0
  8  9  1  0
  9 10  2  0
 10 11  1  0
 11 12  2  0
 12 13  1  0
 13 14  2  0
 13 15  1  0
 12 16  1  0
 11 17  1  0
 10 18  1  0
  8 19  1  0
  6 20  1  0
  4 21  1  0
 21 22  2  0
 21 23  1  0
 23 24  1  6
 24 25  1  0
 25 26  1  0
 26 27  1  0
 27 28  1  0
 28 29  1  0
 29 30  1  0
 30 31  1  0
 31 32  1  0
 32 33  2  0
 32 34  2  0
 32 35  1  0
 35 36  1  0
 35 37  1  0
 35 38  1  0
 31 39  1  0
 39 40  1  0
 40 41  1  0
 40 42  1  0
 39 43  1  0
 39 44  1  0
 30 45  1  0
 30 46  1  0
 29 47  1  0
 29 48  1  0
 28 49  1  0
 27 50  1  0
 27 51  1  0
 26 52  1  0
 26 53  1  0
 25 54  1  0
 54 55  2  0
 54 56  1  0
 56 57  2  0
 57 58  1  0
 58 59  2  0
 59 60  1  0
 59 61  1  0
 61 62  2  0
 61 63  1  0
 58 64  1  0
 57 65  1  0
 24 66  1  0
 24 67  1  0
  3 68  1  0
  3 69  1  0
  2 70  1  1
  1 71  1  0
  1 72  1  0
  1 73  1  0
 23  2  1  0
 40 28  1  0
 62 56  1  0
 14  5  1  0
 62 23  1  0
 14  9  1  0
M  CHG  1  28   1
M  END
>  <cnnaffinities>  (15) 
[6.39776, 6.05085]

>  <score>  (15) 
6.39776

>  <index>  (15) 
14

>  <Smiles>  (15) 
C([C@]1(C(N(c2c(nc(c3c(c(c(c(c23)[H])[H])[H])[H])[H])[H])C(=O)[C@]21C(N(C(C([N+]1(C(C(N(S(=O)(=O)C([H])([H])[H])C(C1([H])[H])([H])[H])([H])[H])([H])[H])[H])([H])[H])([H])[H])C(=O)c1c(c(c(Cl)c(c21)[H])[H])[H])([H])[H])([H])[H])[H])([H])([H])[H]

>  <h>  (15) 
<NA>

>  <Training>  (15) 
True

>  <Success>  (15) 
True

>  <enamine_searched>  (15) 
False

>  <enamine_id>  (15) 
nan

$$$$

     RDKit          3D

 63 68  0  0  0  0  0  0  0  0999 V2000
   -7.4928    3.2137  -21.7517 C   0  0  0  0  0  0  0  0  0  0  0  0
   -8.5885    2.7131  -22.5574 N   0  0  0  0  0  0  0  0  0  0  0  0
   -8.2637    1.9362  -23.6230 C   0  0  0  0  0  0  0  0  0  0  0  0
   -7.1050    1.6544  -23.9039 O   0  0  0  0  0  0  0  0  0  0  0  0
   -9.4067    1.4189  -24.4715 C   0  0  0  0  0  0  0  0  0  0  0  0
   -9.9236    0.1791  -23.9457 N   0  0  0  0  0  0  0  0  0  0  0  0
   -9.1007   -1.0152  -23.9545 C   0  0  0  0  0  0  0  0  0  0  0  0
   -9.2491   -1.8023  -22.6249 C   0  0  2  0  0  0  0  0  0  0  0  0
   -8.6641   -0.9351  -21.4877 C   0  0  0  0  0  0  0  0  0  0  0  0
   -9.1869    0.0289  -20.9640 O   0  0  0  0  0  0  0  0  0  0  0  0
   -7.4008   -1.4033  -21.1942 N   0  0  0  0  0  0  0  0  0  0  0  0
   -6.6084   -0.8090  -20.1873 C   0  0  0  0  0  0  0  0  0  0  0  0
   -6.9371   -1.0079  -18.8697 C   0  0  0  0  0  0  0  0  0  0  0  0
   -6.2458   -0.4882  -17.8318 N   0  0  0  0  0  0  0  0  0  0  0  0
   -5.1883    0.2364  -18.1000 C   0  0  0  0  0  0  0  0  0  0  0  0
   -4.7404    0.5250  -19.4174 C   0  0  0  0  0  0  0  0  0  0  0  0
   -3.6153    1.3548  -19.6559 C   0  0  0  0  0  0  0  0  0  0  0  0
   -3.2366    1.6580  -20.9342 C   0  0  0  0  0  0  0  0  0  0  0  0
   -3.9608    1.1446  -22.0305 C   0  0  0  0  0  0  0  0  0  0  0  0
   -5.0568    0.3353  -21.8267 C   0  0  0  0  0  0  0  0  0  0  0  0
   -5.4704   -0.0045  -20.5090 C   0  0  0  0  0  0  0  0  0  0  0  0
   -5.6359    0.0086  -22.6842 H   0  0  0  0  0  0  0  0  0  0  0  0
   -3.6589    1.4008  -23.0419 H   0  0  0  0  0  0  0  0  0  0  0  0
   -2.3840    2.3059  -21.1118 H   0  0  0  0  0  0  0  0  0  0  0  0
   -3.0810    1.7541  -18.7992 H   0  0  0  0  0  0  0  0  0  0  0  0
   -4.6233    0.6359  -17.2556 H   0  0  0  0  0  0  0  0  0  0  0  0
   -7.7998   -1.6217  -18.6175 H   0  0  0  0  0  0  0  0  0  0  0  0
   -7.0042   -2.5640  -21.9637 C   0  0  0  0  0  0  0  0  0  0  0  0
   -8.3327   -3.0491  -22.5582 C   0  0  2  0  0  0  0  0  0  0  0  0
   -8.1437   -3.8143  -23.8683 C   0  0  0  0  0  0  0  0  0  0  0  0
   -7.4135   -5.0464  -23.6713 N   0  0  0  0  0  0  0  0  0  0  0  0
   -6.0794   -5.2347  -23.7765 C   0  0  0  0  0  0  0  0  0  0  0  0
   -5.8355   -6.5470  -23.4408 C   0  0  0  0  0  0  0  0  0  0  0  0
   -7.1106   -7.0665  -23.1391 C   0  0  0  0  0  0  0  0  0  0  0  0
   -8.0591   -6.1452  -23.2648 N   0  0  0  0  0  0  0  0  0  0  0  0
   -7.3784   -8.0743  -22.8409 H   0  0  0  0  0  0  0  0  0  0  0  0
   -4.8822   -7.0569  -23.4203 H   0  0  0  0  0  0  0  0  0  0  0  0
   -5.4204   -4.4336  -24.0912 H   0  0  0  0  0  0  0  0  0  0  0  0
   -7.5935   -3.1998  -24.5865 H   0  0  0  0  0  0  0  0  0  0  0  0
   -9.1047   -4.0818  -24.3091 H   0  0  0  0  0  0  0  0  0  0  0  0
   -8.7698   -3.7383  -21.8347 H   0  0  0  0  0  0  0  0  0  0  0  0
   -6.5437   -3.3188  -21.3218 H   0  0  0  0  0  0  0  0  0  0  0  0
   -6.2791   -2.3114  -22.7540 H   0  0  0  0  0  0  0  0  0  0  0  0
  -10.7341   -2.0545  -22.4296 C   0  0  0  0  0  0  0  0  0  0  0  0
  -11.2316   -3.1182  -21.6709 C   0  0  0  0  0  0  0  0  0  0  0  0
  -12.5856   -3.1931  -21.3941 C   0  0  0  0  0  0  0  0  0  0  0  0
  -13.1520   -4.3216  -20.2070 Cl  0  0  0  0  0  0  0  0  0  0  0  0
  -13.5121   -2.3183  -21.9500 C   0  0  0  0  0  0  0  0  0  0  0  0
  -13.0357   -1.2857  -22.7255 C   0  0  0  0  0  0  0  0  0  0  0  0
  -11.6657   -1.1187  -22.9060 C   0  0  0  0  0  0  0  0  0  0  0  0
  -11.2130    0.1627  -23.5185 C   0  0  0  0  0  0  0  0  0  0  0  0
  -11.9441    1.1453  -23.5948 O   0  0  0  0  0  0  0  0  0  0  0  0
  -13.7068   -0.5610  -23.1678 H   0  0  0  0  0  0  0  0  0  0  0  0
  -14.5631   -2.4298  -21.7100 H   0  0  0  0  0  0  0  0  0  0  0  0
  -10.5867   -3.8680  -21.2291 H   0  0  0  0  0  0  0  0  0  0  0  0
   -8.0660   -0.6996  -24.1133 H   0  0  0  0  0  0  0  0  0  0  0  0
   -9.4026   -1.6585  -24.7903 H   0  0  0  0  0  0  0  0  0  0  0  0
  -10.2349    2.1240  -24.4469 H   0  0  0  0  0  0  0  0  0  0  0  0
   -9.0339    1.2720  -25.4927 H   0  0  0  0  0  0  0  0  0  0  0  0
   -9.4915    2.6246  -22.1103 H   0  0  0  0  0  0  0  0  0  0  0  0
   -7.8932    3.7780  -20.9094 H   0  0  0  0  0  0  0  0  0  0  0  0
   -6.8902    3.8972  -22.3487 H   0  0  0  0  0  0  0  0  0  0  0  0
   -6.8492    2.3733  -21.4540 H   0  0  0  0  0  0  0  0  0  0  0  0
  1  2  1  0
  2  3  1  0
  3  4  2  0
  3  5  1  0
  5  6  1  0
  6  7  1  0
  8  7  1  6
  8  9  1  0
  9 10  2  0
  9 11  1  0
 11 12  1  0
 12 13  2  0
 13 14  1  0
 14 15  2  0
 15 16  1  0
 16 17  2  0
 17 18  1  0
 18 19  2  0
 19 20  1  0
 20 21  2  0
 20 22  1  0
 19 23  1  0
 18 24  1  0
 17 25  1  0
 15 26  1  0
 13 27  1  0
 11 28  1  0
 28 29  1  0
 29 30  1  0
 30 31  1  0
 31 32  1  0
 32 33  2  0
 33 34  1  0
 34 35  2  0
 34 36  1  0
 33 37  1  0
 32 38  1  0
 30 39  1  0
 30 40  1  0
 29 41  1  1
 28 42  1  0
 28 43  1  0
  8 44  1  0
 44 45  2  0
 45 46  1  0
 46 47  1  0
 46 48  2  0
 48 49  1  0
 49 50  2  0
 50 51  1  0
 51 52  2  0
 49 53  1  0
 48 54  1  0
 45 55  1  0
  7 56  1  0
  7 57  1  0
  5 58  1  0
  5 59  1  0
  2 60  1  0
  1 61  1  0
  1 62  1  0
  1 63  1  0
 51  6  1  0
 29  8  1  0
 35 31  1  0
 50 44  1  0
 21 12  1  0
 21 16  1  0
M  END
>  <cnnaffinities>  (16) 
[6.64484]

>  <score>  (16) 
6.64484

>  <index>  (16) 
15

>  <Smiles>  (16) 
C(N(C(=O)C(N1C([C@@]2(C(=O)N(c3c(nc(c4c(c(c(c(c34)[H])[H])[H])[H])[H])[H])C([C@@]2(C(n2c(c(c(n2)[H])[H])[H])([H])[H])[H])([H])[H])c2c(c(Cl)c(c(c2C1=O)[H])[H])[H])([H])[H])([H])[H])[H])([H])([H])[H]

>  <h>  (16) 
<NA>

>  <Training>  (16) 
True

>  <Success>  (16) 
True

>  <enamine_searched>  (16) 
False

>  <enamine_id>  (16) 
nan

$$$$

     RDKit          3D

 61 66  0  0  0  0  0  0  0  0999 V2000
   -8.4053   -5.3605  -28.5061 C   0  0  0  0  0  0  0  0  0  0  0  0
   -8.3015   -3.9659  -28.1257 N   0  0  0  0  0  0  0  0  0  0  0  0
   -7.3577   -3.5639  -27.2323 C   0  0  0  0  0  0  0  0  0  0  0  0
   -6.5251   -4.3044  -26.7280 O   0  0  0  0  0  0  0  0  0  0  0  0
   -7.4050   -2.0663  -26.8936 C   0  0  0  0  0  0  0  0  0  0  0  0
   -8.3248   -1.7985  -25.7877 N   0  0  0  0  0  0  0  0  0  0  0  0
   -7.7856   -1.3703  -24.4998 C   0  0  0  0  0  0  0  0  0  0  0  0
   -8.7245   -1.5809  -23.2748 C   0  0  2  0  0  0  0  0  0  0  0  0
   -8.2051   -0.6104  -22.2013 C   0  0  0  0  0  0  0  0  0  0  0  0
   -8.4039    0.5842  -22.1257 O   0  0  0  0  0  0  0  0  0  0  0  0
   -7.4002   -1.3225  -21.3311 N   0  0  0  0  0  0  0  0  0  0  0  0
   -6.6292   -0.7326  -20.3000 C   0  0  0  0  0  0  0  0  0  0  0  0
   -6.9543   -0.9877  -18.9922 C   0  0  0  0  0  0  0  0  0  0  0  0
   -6.2955   -0.4811  -17.9245 N   0  0  0  0  0  0  0  0  0  0  0  0
   -5.2457    0.2654  -18.1635 C   0  0  0  0  0  0  0  0  0  0  0  0
   -4.7604    0.5661  -19.4659 C   0  0  0  0  0  0  0  0  0  0  0  0
   -3.6012    1.3615  -19.6636 C   0  0  0  0  0  0  0  0  0  0  0  0
   -3.1518    1.6242  -20.9282 C   0  0  0  0  0  0  0  0  0  0  0  0
   -3.8302    1.0949  -22.0492 C   0  0  0  0  0  0  0  0  0  0  0  0
   -4.9524    0.3243  -21.8813 C   0  0  0  0  0  0  0  0  0  0  0  0
   -5.4607    0.0512  -20.5801 C   0  0  0  0  0  0  0  0  0  0  0  0
   -5.4630   -0.0837  -22.7486 H   0  0  0  0  0  0  0  0  0  0  0  0
   -3.4651    1.3116  -23.0489 H   0  0  0  0  0  0  0  0  0  0  0  0
   -2.2774    2.2489  -21.0789 H   0  0  0  0  0  0  0  0  0  0  0  0
   -3.0961    1.7649  -18.7901 H   0  0  0  0  0  0  0  0  0  0  0  0
   -4.7207    0.6662  -17.2980 H   0  0  0  0  0  0  0  0  0  0  0  0
   -7.8138   -1.6206  -18.7686 H   0  0  0  0  0  0  0  0  0  0  0  0
   -7.3457   -2.7428  -21.6142 C   0  0  0  0  0  0  0  0  0  0  0  0
   -8.5559   -2.9503  -22.5284 C   0  0  2  0  0  0  0  0  0  0  0  0
   -8.4448   -4.2123  -23.3758 C   0  0  0  0  0  0  0  0  0  0  0  0
   -9.6846   -4.5383  -24.0589 N   0  0  0  0  0  0  0  0  0  0  0  0
   -9.7206   -5.0300  -25.2755 N   0  0  0  0  0  0  0  0  0  0  0  0
  -11.0304   -5.1839  -25.4547 C   0  0  0  0  0  0  0  0  0  0  0  0
  -11.7374   -4.8411  -24.3579 N   0  0  0  0  0  0  0  0  0  0  0  0
  -10.8507   -4.4374  -23.4753 N   0  0  0  0  0  0  0  0  0  0  0  0
  -11.4897   -5.5499  -26.3695 H   0  0  0  0  0  0  0  0  0  0  0  0
   -7.6966   -4.0985  -24.1568 H   0  0  0  0  0  0  0  0  0  0  0  0
   -8.1687   -5.0735  -22.7580 H   0  0  0  0  0  0  0  0  0  0  0  0
   -9.4409   -3.0438  -21.8855 H   0  0  0  0  0  0  0  0  0  0  0  0
   -7.4164   -3.3060  -20.6826 H   0  0  0  0  0  0  0  0  0  0  0  0
   -6.4003   -3.0241  -22.1094 H   0  0  0  0  0  0  0  0  0  0  0  0
  -10.1655   -1.3414  -23.6650 C   0  0  0  0  0  0  0  0  0  0  0  0
  -11.1428   -1.2076  -22.6667 C   0  0  0  0  0  0  0  0  0  0  0  0
  -12.4800   -1.2253  -23.0161 C   0  0  0  0  0  0  0  0  0  0  0  0
  -13.6999   -1.2342  -21.7762 Cl  0  0  0  0  0  0  0  0  0  0  0  0
  -12.8974   -1.3396  -24.3393 C   0  0  0  0  0  0  0  0  0  0  0  0
  -11.9384   -1.4571  -25.3220 C   0  0  0  0  0  0  0  0  0  0  0  0
  -10.5933   -1.4615  -24.9865 C   0  0  0  0  0  0  0  0  0  0  0  0
   -9.6472   -1.7395  -26.0993 C   0  0  0  0  0  0  0  0  0  0  0  0
  -10.0596   -1.9615  -27.2409 O   0  0  0  0  0  0  0  0  0  0  0  0
  -12.1903   -1.5983  -26.3659 H   0  0  0  0  0  0  0  0  0  0  0  0
  -13.9577   -1.3854  -24.5509 H   0  0  0  0  0  0  0  0  0  0  0  0
  -10.8644   -1.1625  -21.6170 H   0  0  0  0  0  0  0  0  0  0  0  0
   -6.8412   -1.9063  -24.3237 H   0  0  0  0  0  0  0  0  0  0  0  0
   -7.5571   -0.2965  -24.5331 H   0  0  0  0  0  0  0  0  0  0  0  0
   -6.3976   -1.7375  -26.6188 H   0  0  0  0  0  0  0  0  0  0  0  0
   -7.7379   -1.4966  -27.7686 H   0  0  0  0  0  0  0  0  0  0  0  0
   -9.1194   -3.3709  -28.2153 H   0  0  0  0  0  0  0  0  0  0  0  0
   -7.4228   -5.7308  -28.8012 H   0  0  0  0  0  0  0  0  0  0  0  0
   -9.0728   -5.4411  -29.3667 H   0  0  0  0  0  0  0  0  0  0  0  0
   -8.7802   -5.9810  -27.6838 H   0  0  0  0  0  0  0  0  0  0  0  0
  1  2  1  0
  2  3  1  0
  3  4  2  0
  3  5  1  0
  5  6  1  0
  6  7  1  0
  8  7  1  6
  8  9  1  0
  9 10  2  0
  9 11  1  0
 11 12  1  0
 12 13  2  0
 13 14  1  0
 14 15  2  0
 15 16  1  0
 16 17  2  0
 17 18  1  0
 18 19  2  0
 19 20  1  0
 20 21  2  0
 20 22  1  0
 19 23  1  0
 18 24  1  0
 17 25  1  0
 15 26  1  0
 13 27  1  0
 11 28  1  0
 28 29  1  0
 29 30  1  0
 30 31  1  0
 31 32  1  0
 32 33  2  0
 33 34  1  0
 34 35  2  0
 33 36  1  0
 30 37  1  0
 30 38  1  0
 29 39  1  1
 28 40  1  0
 28 41  1  0
  8 42  1  0
 42 43  2  0
 43 44  1  0
 44 45  1  0
 44 46  2  0
 46 47  1  0
 47 48  2  0
 48 49  1  0
 49 50  2  0
 47 51  1  0
 46 52  1  0
 43 53  1  0
  7 54  1  0
  7 55  1  0
  5 56  1  0
  5 57  1  0
  2 58  1  0
  1 59  1  0
  1 60  1  0
  1 61  1  0
 49  6  1  0
 29  8  1  0
 35 31  1  0
 48 42  1  0
 21 12  1  0
 21 16  1  0
M  END
>  <cnnaffinities>  (17) 
[6.42293]

>  <score>  (17) 
6.42293

>  <index>  (17) 
16

>  <Smiles>  (17) 
C(N(C(=O)C(N1C([C@@]2(C(=O)N(c3c(nc(c4c(c(c(c(c34)[H])[H])[H])[H])[H])[H])C([C@@]2(C(n2nc(nn2)[H])([H])[H])[H])([H])[H])c2c(c(Cl)c(c(c2C1=O)[H])[H])[H])([H])[H])([H])[H])[H])([H])([H])[H]

>  <h>  (17) 
<NA>

>  <Training>  (17) 
True

>  <Success>  (17) 
True

>  <enamine_searched>  (17) 
False

>  <enamine_id>  (17) 
nan

$$$$

     RDKit          3D

 38 41  0  0  0  0  0  0  0  0999 V2000
   -9.3484   -4.9447  -25.6902 C   0  0  0  0  0  0  0  0  0  0  0  0
   -9.3467   -4.1956  -24.3569 C   0  0  2  0  0  0  0  0  0  0  0  0
  -10.3480   -3.0414  -24.3804 C   0  0  0  0  0  0  0  0  0  0  0  0
  -10.4238   -2.3518  -23.0160 C   0  0  0  0  0  0  0  0  0  0  0  0
   -9.0852   -2.1167  -22.4678 C   0  0  0  0  0  0  0  0  0  0  0  0
   -8.7211   -1.1942  -21.4399 C   0  0  0  0  0  0  0  0  0  0  0  0
   -9.3845   -0.3302  -20.9125 O   0  0  0  0  0  1  0  0  0  0  0  0
   -7.3447   -1.4714  -21.2015 N   0  0  0  0  0  0  0  0  0  0  0  0
   -6.5706   -0.8439  -20.1887 C   0  0  0  0  0  0  0  0  0  0  0  0
   -6.8908   -1.0442  -18.8718 C   0  0  0  0  0  0  0  0  0  0  0  0
   -6.2027   -0.5156  -17.8313 N   0  0  0  0  0  0  0  0  0  0  0  0
   -5.1573    0.2253  -18.0852 C   0  0  0  0  0  0  0  0  0  0  0  0
   -4.7204    0.5335  -19.3982 C   0  0  0  0  0  0  0  0  0  0  0  0
   -3.5937    1.3660  -19.6319 C   0  0  0  0  0  0  0  0  0  0  0  0
   -3.2184    1.6694  -20.9104 C   0  0  0  0  0  0  0  0  0  0  0  0
   -3.9530    1.1571  -22.0030 C   0  0  0  0  0  0  0  0  0  0  0  0
   -5.0467    0.3543  -21.8006 C   0  0  0  0  0  0  0  0  0  0  0  0
   -5.4542    0.0038  -20.4884 C   0  0  0  0  0  0  0  0  0  0  0  0
   -5.6086   -0.0304  -22.6442 H   0  0  0  0  0  0  0  0  0  0  0  0
   -3.6553    1.4099  -23.0156 H   0  0  0  0  0  0  0  0  0  0  0  0
   -2.3662    2.3185  -21.0958 H   0  0  0  0  0  0  0  0  0  0  0  0
   -3.0577    1.7721  -18.7772 H   0  0  0  0  0  0  0  0  0  0  0  0
   -4.6090    0.6221  -17.2259 H   0  0  0  0  0  0  0  0  0  0  0  0
   -7.7352   -1.6702  -18.5948 H   0  0  0  0  0  0  0  0  0  0  0  0
   -6.8632   -2.4206  -22.1204 C   0  0  0  0  0  0  0  0  0  0  0  0
   -5.7279   -2.8163  -22.2444 O   0  0  0  0  0  0  0  0  0  0  0  0
   -7.9771   -2.7851  -22.8656 N   0  0  0  0  0  0  0  0  0  0  0  0
   -7.9459   -3.6824  -24.0085 C   0  0  0  0  0  0  0  0  0  0  0  0
   -7.2774   -4.4998  -23.7574 H   0  0  0  0  0  0  0  0  0  0  0  0
   -7.5092   -3.1772  -24.8743 H   0  0  0  0  0  0  0  0  0  0  0  0
  -10.9662   -1.4015  -23.0757 H   0  0  0  0  0  0  0  0  0  0  0  0
  -11.0050   -2.9653  -22.3108 H   0  0  0  0  0  0  0  0  0  0  0  0
  -10.0337   -2.3168  -25.1406 H   0  0  0  0  0  0  0  0  0  0  0  0
  -11.3403   -3.4061  -24.6757 H   0  0  0  0  0  0  0  0  0  0  0  0
   -9.6529   -4.9013  -23.5740 H   0  0  0  0  0  0  0  0  0  0  0  0
  -10.3425   -5.3464  -25.9212 H   0  0  0  0  0  0  0  0  0  0  0  0
   -8.6479   -5.7873  -25.6927 H   0  0  0  0  0  0  0  0  0  0  0  0
   -9.0727   -4.2815  -26.5197 H   0  0  0  0  0  0  0  0  0  0  0  0
  1  2  1  0
  2  3  1  0
  3  4  1  0
  4  5  1  0
  5  6  2  0
  6  7  1  0
  6  8  1  0
  8  9  1  0
  9 10  2  0
 10 11  1  0
 11 12  2  0
 12 13  1  0
 13 14  2  0
 14 15  1  0
 15 16  2  0
 16 17  1  0
 17 18  2  0
 17 19  1  0
 16 20  1  0
 15 21  1  0
 14 22  1  0
 12 23  1  0
 10 24  1  0
  8 25  1  0
 25 26  2  0
 25 27  1  0
 27 28  1  0
 28 29  1  0
 28 30  1  0
  4 31  1  0
  4 32  1  0
  3 33  1  0
  3 34  1  0
  2 35  1  1
  1 36  1  0
  1 37  1  0
  1 38  1  0
 28  2  1  0
 27  5  1  0
 18  9  1  0
 18 13  1  0
M  CHG  1   7  -1
M  END
>  <cnnaffinities>  (18) 
[5.3371]

>  <score>  (18) 
5.3371

>  <index>  (18) 
17

>  <Smiles>  (18) 
C([C@@]1(C(C(c2c([O-])n(c3c(nc(c4c(c(c(c(c34)[H])[H])[H])[H])[H])[H])c(=O)n2C1([H])[H])([H])[H])([H])[H])[H])([H])([H])[H]

>  <h>  (18) 
<NA>

>  <Training>  (18) 
True

>  <Success>  (18) 
True

>  <enamine_searched>  (18) 
False

>  <enamine_id>  (18) 
nan

$$$$

     RDKit          3D

 56 61  0  0  0  0  0  0  0  0999 V2000
  -10.4758   -1.1072  -23.3089 C   0  0  0  0  0  0  0  0  0  0  0  0
   -9.0274   -1.4478  -22.9748 C   0  0  1  0  0  0  0  0  0  0  0  0
   -8.4318   -0.4987  -21.9195 C   0  0  0  0  0  0  0  0  0  0  0  0
   -7.4252   -1.3099  -21.2618 N   0  0  0  0  0  0  0  0  0  0  0  0
   -6.5994   -0.8154  -20.2221 C   0  0  0  0  0  0  0  0  0  0  0  0
   -6.9205   -1.0393  -18.9068 C   0  0  0  0  0  0  0  0  0  0  0  0
   -6.2509   -0.4957  -17.8618 N   0  0  0  0  0  0  0  0  0  0  0  0
   -5.2160    0.2589  -18.1233 C   0  0  0  0  0  0  0  0  0  0  0  0
   -4.7555    0.5500  -19.4355 C   0  0  0  0  0  0  0  0  0  0  0  0
   -3.6132    1.3591  -19.6625 C   0  0  0  0  0  0  0  0  0  0  0  0
   -3.2062    1.6235  -20.9408 C   0  0  0  0  0  0  0  0  0  0  0  0
   -3.9148    1.0829  -22.0385 C   0  0  0  0  0  0  0  0  0  0  0  0
   -5.0176    0.2888  -21.8424 C   0  0  0  0  0  0  0  0  0  0  0  0
   -5.4686    0.0057  -20.5267 C   0  0  0  0  0  0  0  0  0  0  0  0
   -5.5492   -0.1390  -22.6869 H   0  0  0  0  0  0  0  0  0  0  0  0
   -3.5760    1.2935  -23.0483 H   0  0  0  0  0  0  0  0  0  0  0  0
   -2.3354    2.2481  -21.1207 H   0  0  0  0  0  0  0  0  0  0  0  0
   -3.0792    1.7640  -18.8062 H   0  0  0  0  0  0  0  0  0  0  0  0
   -4.6791    0.6755  -17.2711 H   0  0  0  0  0  0  0  0  0  0  0  0
   -7.7665   -1.6681  -18.6411 H   0  0  0  0  0  0  0  0  0  0  0  0
   -7.5567   -2.6605  -21.4997 C   0  0  0  0  0  0  0  0  0  0  0  0
   -6.7736   -3.4960  -21.1027 O   0  0  0  0  0  0  0  0  0  0  0  0
   -8.7874   -2.8929  -22.3982 C   0  0  1  0  0  0  0  0  0  0  0  0
   -9.9877   -3.3630  -21.5359 C   0  0  0  0  0  0  0  0  0  0  0  0
  -11.1247   -3.8122  -22.3489 N   0  0  0  0  0  0  0  0  0  0  0  0
  -12.5013   -3.7544  -21.8477 C   0  0  0  0  0  0  0  0  0  0  0  0
  -13.3686   -2.6890  -22.4731 C   0  0  0  0  0  0  0  0  0  0  0  0
  -14.0095   -1.5679  -21.8941 C   0  0  0  0  0  0  0  0  0  0  0  0
  -14.7936   -1.0538  -22.9014 C   0  0  0  0  0  0  0  0  0  0  0  0
  -14.6073   -1.8584  -23.9731 N   0  0  0  0  0  0  0  0  0  0  0  0
  -13.7505   -2.8610  -23.7312 N   0  0  0  0  0  0  0  0  0  0  0  0
  -15.1327   -1.8976  -24.8307 H   0  0  0  0  0  0  0  0  0  0  0  0
  -15.4627   -0.2035  -22.9358 H   0  0  0  0  0  0  0  0  0  0  0  0
  -13.9057   -1.2079  -20.8800 H   0  0  0  0  0  0  0  0  0  0  0  0
  -12.9602   -4.6986  -22.1542 H   0  0  0  0  0  0  0  0  0  0  0  0
  -12.4836   -3.7052  -20.7548 H   0  0  0  0  0  0  0  0  0  0  0  0
  -10.9264   -4.6438  -23.4239 C   0  0  0  0  0  0  0  0  0  0  0  0
  -11.8496   -5.2022  -23.9938 O   0  0  0  0  0  0  0  0  0  0  0  0
   -9.5172   -4.7963  -23.8994 C   0  0  0  0  0  0  0  0  0  0  0  0
   -9.2609   -5.7731  -24.8632 C   0  0  0  0  0  0  0  0  0  0  0  0
   -7.9966   -5.9057  -25.4072 C   0  0  0  0  0  0  0  0  0  0  0  0
   -7.0008   -5.0325  -24.9837 C   0  0  0  0  0  0  0  0  0  0  0  0
   -5.7679   -5.1545  -25.5061 F   0  0  0  0  0  0  0  0  0  0  0  0
   -7.2235   -4.0807  -24.0080 C   0  0  0  0  0  0  0  0  0  0  0  0
   -8.5001   -3.9514  -23.4429 C   0  0  0  0  0  0  0  0  0  0  0  0
   -6.3848   -3.4911  -23.6621 H   0  0  0  0  0  0  0  0  0  0  0  0
   -7.7748   -6.6655  -26.1472 H   0  0  0  0  0  0  0  0  0  0  0  0
  -10.0813   -6.4114  -25.1850 H   0  0  0  0  0  0  0  0  0  0  0  0
  -10.2805   -2.5006  -20.9245 H   0  0  0  0  0  0  0  0  0  0  0  0
   -9.6634   -4.1816  -20.8805 H   0  0  0  0  0  0  0  0  0  0  0  0
   -9.1983   -0.1481  -21.2071 H   0  0  0  0  0  0  0  0  0  0  0  0
   -7.9765    0.3906  -22.3662 H   0  0  0  0  0  0  0  0  0  0  0  0
   -8.4163   -1.3920  -23.8860 H   0  0  0  0  0  0  0  0  0  0  0  0
  -11.0701   -1.0756  -22.3906 H   0  0  0  0  0  0  0  0  0  0  0  0
  -10.5678   -0.1351  -23.8009 H   0  0  0  0  0  0  0  0  0  0  0  0
  -10.9150   -1.8743  -23.9504 H   0  0  0  0  0  0  0  0  0  0  0  0
  1  2  1  0
  2  3  1  0
  3  4  1  0
  4  5  1  0
  5  6  2  0
  6  7  1  0
  7  8  2  0
  8  9  1  0
  9 10  2  0
 10 11  1  0
 11 12  2  0
 12 13  1  0
 13 14  2  0
 13 15  1  0
 12 16  1  0
 11 17  1  0
 10 18  1  0
  8 19  1  0
  6 20  1  0
  4 21  1  0
 21 22  2  0
 21 23  1  0
 23 24  1  1
 24 25  1  0
 25 26  1  0
 26 27  1  0
 27 28  1  0
 28 29  2  0
 29 30  1  0
 30 31  1  0
 30 32  1  0
 29 33  1  0
 28 34  1  0
 26 35  1  0
 26 36  1  0
 25 37  1  0
 37 38  2  0
 37 39  1  0
 39 40  2  0
 40 41  1  0
 41 42  2  0
 42 43  1  0
 42 44  1  0
 44 45  2  0
 44 46  1  0
 41 47  1  0
 40 48  1  0
 24 49  1  0
 24 50  1  0
  3 51  1  0
  3 52  1  0
  2 53  1  6
  1 54  1  0
  1 55  1  0
  1 56  1  0
 23  2  1  0
 31 27  2  0
 45 39  1  0
 14  5  1  0
 45 23  1  0
 14  9  1  0
M  END
>  <cnnaffinities>  (19) 
[6.6494]

>  <score>  (19) 
6.6494

>  <index>  (19) 
18

>  <Smiles>  (19) 
C([C@]1(C(N(c2c(nc(c3c(c(c(c(c23)[H])[H])[H])[H])[H])[H])C(=O)[C@]21C(N(C(c1c(c(n(n1)[H])[H])[H])([H])[H])C(=O)c1c(c(c(F)c(c21)[H])[H])[H])([H])[H])([H])[H])[H])([H])([H])[H]

>  <h>  (19) 
<NA>

>  <Training>  (19) 
True

>  <Success>  (19) 
True

>  <enamine_searched>  (19) 
False

>  <enamine_id>  (19) 
nan

$$$$

     RDKit          3D

 42 45  0  0  0  0  0  0  0  0999 V2000
   -9.1374   -0.0552  -20.7421 O   0  0  0  0  0  0  0  0  0  0  0  0
   -8.6476   -0.9146  -21.4509 C   0  0  0  0  0  0  0  0  0  0  0  0
   -9.3614   -1.5275  -22.6635 C   0  0  1  0  0  0  0  0  0  0  0  0
  -10.4534   -0.5802  -23.1019 C   0  0  0  0  0  0  0  0  0  0  0  0
  -10.1372    0.7532  -23.3398 C   0  0  0  0  0  0  0  0  0  0  0  0
  -11.1305    1.6832  -23.5820 C   0  0  0  0  0  0  0  0  0  0  0  0
  -12.4523    1.2604  -23.7104 C   0  0  0  0  0  0  0  0  0  0  0  0
  -13.6719    2.4536  -23.9836 Cl  0  0  0  0  0  0  0  0  0  0  0  0
  -12.7565   -0.0992  -23.6411 C   0  0  0  0  0  0  0  0  0  0  0  0
  -14.3248   -0.6934  -24.0680 Cl  0  0  0  0  0  0  0  0  0  0  0  0
  -11.7586   -1.0079  -23.3005 C   0  0  0  0  0  0  0  0  0  0  0  0
  -12.0182   -2.0592  -23.2563 H   0  0  0  0  0  0  0  0  0  0  0  0
  -10.8768    2.7221  -23.7661 H   0  0  0  0  0  0  0  0  0  0  0  0
   -9.1001    1.0675  -23.3103 H   0  0  0  0  0  0  0  0  0  0  0  0
   -8.3351   -1.7926  -23.7769 C   0  0  0  0  0  0  0  0  0  0  0  0
   -7.2286   -2.7591  -23.3428 C   0  0  2  0  0  0  0  0  0  0  0  0
   -7.5334   -4.1123  -23.6553 O   0  0  0  0  0  0  0  0  0  0  0  0
   -8.3956   -4.3231  -23.2701 H   0  0  0  0  0  0  0  0  0  0  0  0
   -6.9206   -2.6340  -21.8394 C   0  0  0  0  0  0  0  0  0  0  0  0
   -7.3632   -1.3752  -21.2583 N   0  0  0  0  0  0  0  0  0  0  0  0
   -6.5998   -0.8053  -20.2029 C   0  0  0  0  0  0  0  0  0  0  0  0
   -6.9185   -1.0357  -18.8906 C   0  0  0  0  0  0  0  0  0  0  0  0
   -6.2255   -0.5250  -17.8455 N   0  0  0  0  0  0  0  0  0  0  0  0
   -5.1757    0.2154  -18.0980 C   0  0  0  0  0  0  0  0  0  0  0  0
   -4.7241    0.5249  -19.4097 C   0  0  0  0  0  0  0  0  0  0  0  0
   -3.5951    1.3514  -19.6452 C   0  0  0  0  0  0  0  0  0  0  0  0
   -3.2076    1.6381  -20.9269 C   0  0  0  0  0  0  0  0  0  0  0  0
   -3.9279    1.1053  -22.0221 C   0  0  0  0  0  0  0  0  0  0  0  0
   -5.0200    0.3019  -21.8151 C   0  0  0  0  0  0  0  0  0  0  0  0
   -5.4493   -0.0047  -20.4986 C   0  0  0  0  0  0  0  0  0  0  0  0
   -5.5842   -0.0951  -22.6528 H   0  0  0  0  0  0  0  0  0  0  0  0
   -3.6231    1.3512  -23.0349 H   0  0  0  0  0  0  0  0  0  0  0  0
   -2.3588    2.2912  -21.1100 H   0  0  0  0  0  0  0  0  0  0  0  0
   -3.0670    1.7651  -18.7899 H   0  0  0  0  0  0  0  0  0  0  0  0
   -4.6286    0.6120  -17.2427 H   0  0  0  0  0  0  0  0  0  0  0  0
   -7.7688   -1.6581  -18.6196 H   0  0  0  0  0  0  0  0  0  0  0  0
   -7.4010   -3.4960  -21.3433 H   0  0  0  0  0  0  0  0  0  0  0  0
   -5.8437   -2.6933  -21.6596 H   0  0  0  0  0  0  0  0  0  0  0  0
   -6.3252   -2.5495  -23.9291 H   0  0  0  0  0  0  0  0  0  0  0  0
   -7.8975   -0.8295  -24.0731 H   0  0  0  0  0  0  0  0  0  0  0  0
   -8.8235   -2.2106  -24.6653 H   0  0  0  0  0  0  0  0  0  0  0  0
   -9.8096   -2.4847  -22.3531 H   0  0  0  0  0  0  0  0  0  0  0  0
  1  2  2  0
  2  3  1  0
  3  4  1  0
  4  5  2  0
  5  6  1  0
  6  7  2  0
  7  8  1  0
  7  9  1  0
  9 10  1  0
  9 11  2  0
 11 12  1  0
  6 13  1  0
  5 14  1  0
  3 15  1  0
 15 16  1  0
 16 17  1  0
 17 18  1  0
 16 19  1  0
 19 20  1  0
 20 21  1  0
 21 22  2  0
 22 23  1  0
 23 24  2  0
 24 25  1  0
 25 26  2  0
 26 27  1  0
 27 28  2  0
 28 29  1  0
 29 30  2  0
 29 31  1  0
 28 32  1  0
 27 33  1  0
 26 34  1  0
 24 35  1  0
 22 36  1  0
 19 37  1  0
 19 38  1  0
 16 39  1  6
 15 40  1  0
 15 41  1  0
  3 42  1  1
 20  2  1  0
 30 21  1  0
 11  4  1  0
 30 25  1  0
M  END
>  <cnnaffinities>  (20) 
[5.91348, 5.91816]

>  <score>  (20) 
5.91348

>  <index>  (20) 
19

>  <Smiles>  (20) 
O=C1[C@@](c2c(c(c(Cl)c(Cl)c2[H])[H])[H])(C([C@](O[H])(C(N1c1c(nc(c2c(c(c(c(c12)[H])[H])[H])[H])[H])[H])([H])[H])[H])([H])[H])[H]

>  <h>  (20) 
<NA>

>  <Training>  (20) 
True

>  <Success>  (20) 
True

>  <enamine_searched>  (20) 
False

>  <enamine_id>  (20) 
nan

$$$$

     RDKit          3D

 66 71  0  0  0  0  0  0  0  0999 V2000
   -7.0349    0.4840  -29.2725 C   0  0  0  0  0  0  0  0  0  0  0  0
   -7.4960   -0.6613  -28.5232 N   0  0  0  0  0  0  0  0  0  0  0  0
   -6.7354   -1.1163  -27.4925 C   0  0  0  0  0  0  0  0  0  0  0  0
   -5.6568   -0.6302  -27.1807 O   0  0  0  0  0  0  0  0  0  0  0  0
   -7.3431   -2.3037  -26.7403 C   0  0  0  0  0  0  0  0  0  0  0  0
   -8.2633   -1.8716  -25.7004 N   0  0  0  0  0  0  0  0  0  0  0  0
   -7.7266   -1.3538  -24.4514 C   0  0  0  0  0  0  0  0  0  0  0  0
   -8.6760   -1.5454  -23.2385 C   0  0  2  0  0  0  0  0  0  0  0  0
   -8.1972   -0.5688  -22.1532 C   0  0  0  0  0  0  0  0  0  0  0  0
   -8.4108    0.6208  -22.0732 O   0  0  0  0  0  0  0  0  0  0  0  0
   -7.3957   -1.2743  -21.2730 N   0  0  0  0  0  0  0  0  0  0  0  0
   -6.6166   -0.6845  -20.2519 C   0  0  0  0  0  0  0  0  0  0  0  0
   -6.9289   -0.9438  -18.9425 C   0  0  0  0  0  0  0  0  0  0  0  0
   -6.2598   -0.4395  -17.8807 N   0  0  0  0  0  0  0  0  0  0  0  0
   -5.2103    0.3038  -18.1308 C   0  0  0  0  0  0  0  0  0  0  0  0
   -4.7328    0.5991  -19.4380 C   0  0  0  0  0  0  0  0  0  0  0  0
   -3.5704    1.3869  -19.6497 C   0  0  0  0  0  0  0  0  0  0  0  0
   -3.1289    1.6379  -20.9187 C   0  0  0  0  0  0  0  0  0  0  0  0
   -3.8126    1.1012  -22.0322 C   0  0  0  0  0  0  0  0  0  0  0  0
   -4.9374    0.3359  -21.8511 C   0  0  0  0  0  0  0  0  0  0  0  0
   -5.4418    0.0831  -20.5446 C   0  0  0  0  0  0  0  0  0  0  0  0
   -5.4482   -0.0842  -22.7120 H   0  0  0  0  0  0  0  0  0  0  0  0
   -3.4514    1.3066  -23.0352 H   0  0  0  0  0  0  0  0  0  0  0  0
   -2.2535    2.2588  -21.0795 H   0  0  0  0  0  0  0  0  0  0  0  0
   -3.0580    1.7938  -18.7822 H   0  0  0  0  0  0  0  0  0  0  0  0
   -4.6792    0.7023  -17.2689 H   0  0  0  0  0  0  0  0  0  0  0  0
   -7.7862   -1.5784  -18.7172 H   0  0  0  0  0  0  0  0  0  0  0  0
   -7.3060   -2.6892  -21.5584 C   0  0  0  0  0  0  0  0  0  0  0  0
   -8.4829   -2.9150  -22.5064 C   0  0  2  0  0  0  0  0  0  0  0  0
   -8.3223   -4.1686  -23.3617 C   0  0  0  0  0  0  0  0  0  0  0  0
   -9.5000   -4.5511  -24.2315 C   0  0  0  0  0  0  0  0  0  0  0  0
   -9.2616   -5.0429  -25.5164 C   0  0  0  0  0  0  0  0  0  0  0  0
  -10.2864   -5.5977  -26.2720 C   0  0  0  0  0  0  0  0  0  0  0  0
  -11.5786   -5.6257  -25.7678 C   0  0  0  0  0  0  0  0  0  0  0  0
  -11.8439   -5.0635  -24.5212 C   0  0  0  0  0  0  0  0  0  0  0  0
  -10.8116   -4.5236  -23.7657 C   0  0  0  0  0  0  0  0  0  0  0  0
  -11.0581   -4.0807  -22.8040 H   0  0  0  0  0  0  0  0  0  0  0  0
  -12.8507   -5.0251  -24.1113 H   0  0  0  0  0  0  0  0  0  0  0  0
  -12.3659   -6.0710  -26.3685 H   0  0  0  0  0  0  0  0  0  0  0  0
  -10.0792   -6.0317  -27.2488 H   0  0  0  0  0  0  0  0  0  0  0  0
   -8.2573   -4.9843  -25.9361 H   0  0  0  0  0  0  0  0  0  0  0  0
   -7.4441   -4.0597  -24.0058 H   0  0  0  0  0  0  0  0  0  0  0  0
   -8.1008   -5.0109  -22.6902 H   0  0  0  0  0  0  0  0  0  0  0  0
   -9.3754   -3.0413  -21.8791 H   0  0  0  0  0  0  0  0  0  0  0  0
   -7.3955   -3.2611  -20.6333 H   0  0  0  0  0  0  0  0  0  0  0  0
   -6.3406   -2.9504  -22.0257 H   0  0  0  0  0  0  0  0  0  0  0  0
  -10.1185   -1.3403  -23.6488 C   0  0  0  0  0  0  0  0  0  0  0  0
  -11.1189   -1.2564  -22.6716 C   0  0  0  0  0  0  0  0  0  0  0  0
  -12.4547   -1.2699  -23.0255 C   0  0  0  0  0  0  0  0  0  0  0  0
  -13.6779   -1.2318  -21.7865 Cl  0  0  0  0  0  0  0  0  0  0  0  0
  -12.8507   -1.3834  -24.3561 C   0  0  0  0  0  0  0  0  0  0  0  0
  -11.8759   -1.4483  -25.3280 C   0  0  0  0  0  0  0  0  0  0  0  0
  -10.5271   -1.4138  -24.9824 C   0  0  0  0  0  0  0  0  0  0  0  0
   -9.5436   -1.6072  -26.0839 C   0  0  0  0  0  0  0  0  0  0  0  0
   -9.8851   -1.5950  -27.2679 O   0  0  0  0  0  0  0  0  0  0  0  0
  -12.1217   -1.5562  -26.3805 H   0  0  0  0  0  0  0  0  0  0  0  0
  -13.9107   -1.4643  -24.5821 H   0  0  0  0  0  0  0  0  0  0  0  0
  -10.8674   -1.1996  -21.6170 H   0  0  0  0  0  0  0  0  0  0  0  0
   -7.5091   -0.2817  -24.5435 H   0  0  0  0  0  0  0  0  0  0  0  0
   -6.7737   -1.8568  -24.2470 H   0  0  0  0  0  0  0  0  0  0  0  0
   -6.5259   -2.8829  -26.2981 H   0  0  0  0  0  0  0  0  0  0  0  0
   -7.9138   -2.9395  -27.4290 H   0  0  0  0  0  0  0  0  0  0  0  0
   -8.4906   -0.8678  -28.4859 H   0  0  0  0  0  0  0  0  0  0  0  0
   -7.6956    0.6488  -30.1257 H   0  0  0  0  0  0  0  0  0  0  0  0
   -6.0246    0.2957  -29.6404 H   0  0  0  0  0  0  0  0  0  0  0  0
   -6.9992    1.3889  -28.6574 H   0  0  0  0  0  0  0  0  0  0  0  0
  1  2  1  0
  2  3  1  0
  3  4  2  0
  3  5  1  0
  5  6  1  0
  6  7  1  0
  8  7  1  6
  8  9  1  0
  9 10  2  0
  9 11  1  0
 11 12  1  0
 12 13  2  0
 13 14  1  0
 14 15  2  0
 15 16  1  0
 16 17  2  0
 17 18  1  0
 18 19  2  0
 19 20  1  0
 20 21  2  0
 20 22  1  0
 19 23  1  0
 18 24  1  0
 17 25  1  0
 15 26  1  0
 13 27  1  0
 11 28  1  0
 28 29  1  0
 29 30  1  0
 30 31  1  0
 31 32  2  0
 32 33  1  0
 33 34  2  0
 34 35  1  0
 35 36  2  0
 36 37  1  0
 35 38  1  0
 34 39  1  0
 33 40  1  0
 32 41  1  0
 30 42  1  0
 30 43  1  0
 29 44  1  1
 28 45  1  0
 28 46  1  0
  8 47  1  0
 47 48  2  0
 48 49  1  0
 49 50  1  0
 49 51  2  0
 51 52  1  0
 52 53  2  0
 53 54  1  0
 54 55  2  0
 52 56  1  0
 51 57  1  0
 48 58  1  0
  7 59  1  0
  7 60  1  0
  5 61  1  0
  5 62  1  0
  2 63  1  0
  1 64  1  0
  1 65  1  0
  1 66  1  0
 54  6  1  0
 29  8  1  0
 36 31  1  0
 53 47  1  0
 21 12  1  0
 21 16  1  0
M  END
>  <cnnaffinities>  (21) 
[6.48621]

>  <score>  (21) 
6.48621

>  <index>  (21) 
20

>  <Smiles>  (21) 
C(N(C(=O)C(N1C([C@@]2(C(=O)N(c3c(nc(c4c(c(c(c(c34)[H])[H])[H])[H])[H])[H])C([C@@]2(C(c2c(c(c(c(c2[H])[H])[H])[H])[H])([H])[H])[H])([H])[H])c2c(c(Cl)c(c(c2C1=O)[H])[H])[H])([H])[H])([H])[H])[H])([H])([H])[H]

>  <h>  (21) 
<NA>

>  <Training>  (21) 
True

>  <Success>  (21) 
True

>  <enamine_searched>  (21) 
False

>  <enamine_id>  (21) 
nan

$$$$

     RDKit          3D

 63 68  0  0  0  0  0  0  0  0999 V2000
   -8.3233   -4.1220  -23.4707 C   0  0  0  0  0  0  0  0  0  0  0  0
   -8.5215   -2.9495  -22.5271 C   0  0  1  0  0  0  0  0  0  0  0  0
   -7.3679   -2.7421  -21.5434 C   0  0  0  0  0  0  0  0  0  0  0  0
   -7.3997   -1.3226  -21.2776 N   0  0  0  0  0  0  0  0  0  0  0  0
   -6.6149   -0.7533  -20.2516 C   0  0  0  0  0  0  0  0  0  0  0  0
   -6.9261   -1.0098  -18.9417 C   0  0  0  0  0  0  0  0  0  0  0  0
   -6.2594   -0.4995  -17.8820 N   0  0  0  0  0  0  0  0  0  0  0  0
   -5.2123    0.2463  -18.1311 C   0  0  0  0  0  0  0  0  0  0  0  0
   -4.7501    0.5461  -19.4414 C   0  0  0  0  0  0  0  0  0  0  0  0
   -3.6023    1.3520  -19.6513 C   0  0  0  0  0  0  0  0  0  0  0  0
   -3.1707    1.6213  -20.9194 C   0  0  0  0  0  0  0  0  0  0  0  0
   -3.8527    1.0841  -22.0335 C   0  0  0  0  0  0  0  0  0  0  0  0
   -4.9627    0.2993  -21.8556 C   0  0  0  0  0  0  0  0  0  0  0  0
   -5.4548    0.0273  -20.5478 C   0  0  0  0  0  0  0  0  0  0  0  0
   -5.4758   -0.1077  -22.7204 H   0  0  0  0  0  0  0  0  0  0  0  0
   -3.4962    1.3000  -23.0354 H   0  0  0  0  0  0  0  0  0  0  0  0
   -2.3033    2.2539  -21.0776 H   0  0  0  0  0  0  0  0  0  0  0  0
   -3.0893    1.7531  -18.7825 H   0  0  0  0  0  0  0  0  0  0  0  0
   -4.6648    0.6431  -17.2752 H   0  0  0  0  0  0  0  0  0  0  0  0
   -7.7780   -1.6447  -18.7048 H   0  0  0  0  0  0  0  0  0  0  0  0
   -8.1581   -0.5863  -22.1585 C   0  0  0  0  0  0  0  0  0  0  0  0
   -8.2903    0.6215  -22.1049 O   0  0  0  0  0  0  0  0  0  0  0  0
   -8.7542   -1.5484  -23.2058 C   0  0  1  0  0  0  0  0  0  0  0  0
   -7.9681   -1.2994  -24.5213 C   0  0  0  0  0  0  0  0  0  0  0  0
   -8.6028   -1.8658  -25.7066 N   0  0  0  0  0  0  0  0  0  0  0  0
   -7.7997   -2.2301  -26.8619 C   0  0  0  0  0  0  0  0  0  0  0  0
   -7.7842   -3.7489  -27.0278 C   0  0  0  0  0  0  0  0  0  0  0  0
   -6.9731   -4.4579  -26.4514 O   0  0  0  0  0  0  0  0  0  0  0  0
   -8.7384   -4.2281  -27.8778 N   0  0  0  0  0  0  0  0  0  0  0  0
   -8.9180   -5.6609  -28.0151 C   0  0  0  0  0  0  0  0  0  0  0  0
   -9.5384   -6.2800  -26.7745 C   0  0  0  0  0  0  0  0  0  0  0  0
   -9.5878   -7.7733  -26.6314 C   0  0  0  0  0  0  0  0  0  0  0  0
   -8.6658   -6.9740  -25.7627 C   0  0  0  0  0  0  0  0  0  0  0  0
   -8.9129   -6.8466  -24.7106 H   0  0  0  0  0  0  0  0  0  0  0  0
   -7.6051   -7.0241  -26.0057 H   0  0  0  0  0  0  0  0  0  0  0  0
   -9.1353   -8.3785  -27.4145 H   0  0  0  0  0  0  0  0  0  0  0  0
  -10.4733   -8.2043  -26.1747 H   0  0  0  0  0  0  0  0  0  0  0  0
  -10.3957   -5.7314  -26.3703 H   0  0  0  0  0  0  0  0  0  0  0  0
   -9.5466   -5.8442  -28.8978 H   0  0  0  0  0  0  0  0  0  0  0  0
   -7.9377   -6.1123  -28.2194 H   0  0  0  0  0  0  0  0  0  0  0  0
   -9.5626   -3.6467  -27.9924 H   0  0  0  0  0  0  0  0  0  0  0  0
   -6.7906   -1.8447  -26.7207 H   0  0  0  0  0  0  0  0  0  0  0  0
   -8.2407   -1.7605  -27.7441 H   0  0  0  0  0  0  0  0  0  0  0  0
   -9.9434   -1.8292  -25.9103 C   0  0  0  0  0  0  0  0  0  0  0  0
  -10.4470   -2.1007  -27.0065 O   0  0  0  0  0  0  0  0  0  0  0  0
  -10.7797   -1.4896  -24.7382 C   0  0  0  0  0  0  0  0  0  0  0  0
  -12.1491   -1.4087  -24.9534 C   0  0  0  0  0  0  0  0  0  0  0  0
  -13.0130   -1.1221  -23.9222 C   0  0  0  0  0  0  0  0  0  0  0  0
  -12.4614   -0.9936  -22.6564 C   0  0  0  0  0  0  0  0  0  0  0  0
  -13.3120   -0.8162  -21.6416 F   0  0  0  0  0  0  0  0  0  0  0  0
  -11.1019   -1.0699  -22.4091 C   0  0  0  0  0  0  0  0  0  0  0  0
  -10.2274   -1.3142  -23.4694 C   0  0  0  0  0  0  0  0  0  0  0  0
  -10.7090   -0.9387  -21.4101 H   0  0  0  0  0  0  0  0  0  0  0  0
  -14.0802   -0.9984  -24.0707 H   0  0  0  0  0  0  0  0  0  0  0  0
  -12.4890   -1.6078  -25.9578 H   0  0  0  0  0  0  0  0  0  0  0  0
   -7.8483   -0.2123  -24.6481 H   0  0  0  0  0  0  0  0  0  0  0  0
   -6.9670   -1.7395  -24.4381 H   0  0  0  0  0  0  0  0  0  0  0  0
   -7.5134   -3.2679  -20.6023 H   0  0  0  0  0  0  0  0  0  0  0  0
   -6.3957   -3.0629  -21.9510 H   0  0  0  0  0  0  0  0  0  0  0  0
   -9.4255   -3.1344  -21.9280 H   0  0  0  0  0  0  0  0  0  0  0  0
   -9.1554   -4.1824  -24.1795 H   0  0  0  0  0  0  0  0  0  0  0  0
   -8.2800   -5.0620  -22.9097 H   0  0  0  0  0  0  0  0  0  0  0  0
   -7.4007   -4.0168  -24.0492 H   0  0  0  0  0  0  0  0  0  0  0  0
  1  2  1  0
  2  3  1  0
  3  4  1  0
  4  5  1  0
  5  6  2  0
  6  7  1  0
  7  8  2  0
  8  9  1  0
  9 10  2  0
 10 11  1  0
 11 12  2  0
 12 13  1  0
 13 14  2  0
 13 15  1  0
 12 16  1  0
 11 17  1  0
 10 18  1  0
  8 19  1  0
  6 20  1  0
  4 21  1  0
 21 22  2  0
 21 23  1  0
 23 24  1  6
 24 25  1  0
 25 26  1  0
 26 27  1  0
 27 28  2  0
 27 29  1  0
 29 30  1  0
 30 31  1  0
 31 32  1  0
 32 33  1  0
 33 34  1  0
 33 35  1  0
 32 36  1  0
 32 37  1  0
 31 38  1  0
 30 39  1  0
 30 40  1  0
 29 41  1  0
 26 42  1  0
 26 43  1  0
 25 44  1  0
 44 45  2  0
 44 46  1  0
 46 47  2  0
 47 48  1  0
 48 49  2  0
 49 50  1  0
 49 51  1  0
 51 52  2  0
 51 53  1  0
 48 54  1  0
 47 55  1  0
 24 56  1  0
 24 57  1  0
  3 58  1  0
  3 59  1  0
  2 60  1  1
  1 61  1  0
  1 62  1  0
  1 63  1  0
 23  2  1  0
 33 31  1  0
 52 46  1  0
 14  5  1  0
 52 23  1  0
 14  9  1  0
M  END
>  <cnnaffinities>  (22) 
[6.42098, 6.45249, 6.39312]

>  <score>  (22) 
6.42098

>  <index>  (22) 
21

>  <Smiles>  (22) 
C([C@]1(C(N(c2c(nc(c3c(c(c(c(c23)[H])[H])[H])[H])[H])[H])C(=O)[C@]21C(N(C(C(=O)N(C(C1(C(C1([H])[H])([H])[H])[H])([H])[H])[H])([H])[H])C(=O)c1c(c(c(F)c(c21)[H])[H])[H])([H])[H])([H])[H])[H])([H])([H])[H]

>  <h>  (22) 
<NA>

>  <Training>  (22) 
True

>  <Success>  (22) 
True

>  <enamine_searched>  (22) 
False

>  <enamine_id>  (22) 
nan

$$$$

     RDKit          3D

 68 73  0  0  0  0  0  0  0  0999 V2000
   -8.0225   -5.7030  -27.2775 C   0  0  0  0  0  0  0  0  0  0  0  0
   -8.2201   -4.2631  -27.3230 N   0  0  0  0  0  0  0  0  0  0  0  0
   -7.2539   -3.4147  -26.9243 C   0  0  0  0  0  0  0  0  0  0  0  0
   -6.1553   -3.7866  -26.5080 O   0  0  0  0  0  0  0  0  0  0  0  0
   -7.6172   -1.9288  -26.9146 C   0  0  0  0  0  0  0  0  0  0  0  0
   -8.4911   -1.6020  -25.7931 N   0  0  0  0  0  0  0  0  0  0  0  0
   -7.9192   -1.1970  -24.5137 C   0  0  0  0  0  0  0  0  0  0  0  0
   -8.7801   -1.5198  -23.2497 C   0  0  2  0  0  0  0  0  0  0  0  0
   -8.2778   -0.5775  -22.1436 C   0  0  0  0  0  0  0  0  0  0  0  0
   -8.5094    0.6070  -22.0265 O   0  0  0  0  0  0  0  0  0  0  0  0
   -7.4140   -1.2909  -21.3302 N   0  0  0  0  0  0  0  0  0  0  0  0
   -6.6408   -0.7013  -20.2964 C   0  0  0  0  0  0  0  0  0  0  0  0
   -6.9654   -0.9470  -18.9861 C   0  0  0  0  0  0  0  0  0  0  0  0
   -6.2995   -0.4491  -17.9172 N   0  0  0  0  0  0  0  0  0  0  0  0
   -5.2425    0.2854  -18.1586 C   0  0  0  0  0  0  0  0  0  0  0  0
   -4.7594    0.5858  -19.4621 C   0  0  0  0  0  0  0  0  0  0  0  0
   -3.5930    1.3720  -19.6606 C   0  0  0  0  0  0  0  0  0  0  0  0
   -3.1396    1.6288  -20.9242 C   0  0  0  0  0  0  0  0  0  0  0  0
   -3.8223    1.1022  -22.0431 C   0  0  0  0  0  0  0  0  0  0  0  0
   -4.9528    0.3415  -21.8751 C   0  0  0  0  0  0  0  0  0  0  0  0
   -5.4646    0.0736  -20.5755 C   0  0  0  0  0  0  0  0  0  0  0  0
   -5.4609   -0.0678  -22.7431 H   0  0  0  0  0  0  0  0  0  0  0  0
   -3.4502    1.3077  -23.0418 H   0  0  0  0  0  0  0  0  0  0  0  0
   -2.2588    2.2463  -21.0758 H   0  0  0  0  0  0  0  0  0  0  0  0
   -3.0824    1.7719  -18.7885 H   0  0  0  0  0  0  0  0  0  0  0  0
   -4.7068    0.6720  -17.2935 H   0  0  0  0  0  0  0  0  0  0  0  0
   -7.8287   -1.5719  -18.7611 H   0  0  0  0  0  0  0  0  0  0  0  0
   -7.3387   -2.7120  -21.6209 C   0  0  0  0  0  0  0  0  0  0  0  0
   -8.5112   -2.9120  -22.5830 C   0  0  2  0  0  0  0  0  0  0  0  0
   -8.4905   -4.1268  -23.5194 C   0  0  0  0  0  0  0  0  0  0  0  0
   -7.2190   -4.5739  -24.0225 N   0  0  0  0  0  0  0  0  0  0  0  0
   -6.4325   -5.5332  -23.4328 C   0  0  0  0  0  0  0  0  0  0  0  0
   -5.2794   -5.9798  -24.0969 C   0  0  0  0  0  0  0  0  0  0  0  0
   -4.4329   -6.8885  -23.4706 C   0  0  0  0  0  0  0  0  0  0  0  0
   -4.7267   -7.3806  -22.1994 C   0  0  0  0  0  0  0  0  0  0  0  0
   -5.8889   -6.9573  -21.5613 C   0  0  0  0  0  0  0  0  0  0  0  0
   -6.7418   -6.0537  -22.1749 C   0  0  0  0  0  0  0  0  0  0  0  0
   -7.6507   -5.7226  -21.6842 H   0  0  0  0  0  0  0  0  0  0  0  0
   -6.1441   -7.3327  -20.5736 H   0  0  0  0  0  0  0  0  0  0  0  0
   -4.0691   -8.1012  -21.7186 H   0  0  0  0  0  0  0  0  0  0  0  0
   -3.5253   -7.2157  -23.9767 H   0  0  0  0  0  0  0  0  0  0  0  0
   -5.0706   -5.6036  -25.0999 H   0  0  0  0  0  0  0  0  0  0  0  0
   -6.7385   -4.0338  -24.7247 H   0  0  0  0  0  0  0  0  0  0  0  0
   -8.9550   -4.9814  -23.0213 H   0  0  0  0  0  0  0  0  0  0  0  0
   -9.1435   -3.8979  -24.3725 H   0  0  0  0  0  0  0  0  0  0  0  0
   -9.3918   -3.0559  -21.9444 H   0  0  0  0  0  0  0  0  0  0  0  0
   -7.4600   -3.2835  -20.6956 H   0  0  0  0  0  0  0  0  0  0  0  0
   -6.3586   -2.9801  -22.0386 H   0  0  0  0  0  0  0  0  0  0  0  0
  -10.2557   -1.3740  -23.5605 C   0  0  0  0  0  0  0  0  0  0  0  0
  -11.2071   -1.3591  -22.5236 C   0  0  0  0  0  0  0  0  0  0  0  0
  -12.5640   -1.3794  -22.8284 C   0  0  0  0  0  0  0  0  0  0  0  0
  -13.7777   -1.4541  -21.5856 Cl  0  0  0  0  0  0  0  0  0  0  0  0
  -13.0160   -1.4558  -24.1398 C   0  0  0  0  0  0  0  0  0  0  0  0
  -12.0826   -1.5191  -25.1491 C   0  0  0  0  0  0  0  0  0  0  0  0
  -10.7225   -1.4925  -24.8659 C   0  0  0  0  0  0  0  0  0  0  0  0
   -9.8187   -1.7729  -26.0070 C   0  0  0  0  0  0  0  0  0  0  0  0
  -10.2517   -2.2090  -27.0778 O   0  0  0  0  0  0  0  0  0  0  0  0
  -12.3688   -1.6581  -26.1789 H   0  0  0  0  0  0  0  0  0  0  0  0
  -14.0778   -1.5137  -24.3560 H   0  0  0  0  0  0  0  0  0  0  0  0
  -10.8879   -1.3846  -21.4892 H   0  0  0  0  0  0  0  0  0  0  0  0
   -6.9379   -1.6838  -24.4284 H   0  0  0  0  0  0  0  0  0  0  0  0
   -7.7658   -0.1111  -24.5236 H   0  0  0  0  0  0  0  0  0  0  0  0
   -8.1623   -1.6861  -27.8263 H   0  0  0  0  0  0  0  0  0  0  0  0
   -6.6973   -1.3435  -26.8778 H   0  0  0  0  0  0  0  0  0  0  0  0
   -9.1312   -3.8732  -27.5356 H   0  0  0  0  0  0  0  0  0  0  0  0
   -7.5141   -5.9832  -26.3459 H   0  0  0  0  0  0  0  0  0  0  0  0
   -8.9964   -6.1986  -27.3074 H   0  0  0  0  0  0  0  0  0  0  0  0
   -7.4264   -6.0511  -28.1298 H   0  0  0  0  0  0  0  0  0  0  0  0
  1  2  1  0
  2  3  1  0
  3  4  2  0
  3  5  1  0
  5  6  1  0
  6  7  1  0
  8  7  1  6
  8  9  1  0
  9 10  2  0
  9 11  1  0
 11 12  1  0
 12 13  2  0
 13 14  1  0
 14 15  2  0
 15 16  1  0
 16 17  2  0
 17 18  1  0
 18 19  2  0
 19 20  1  0
 20 21  2  0
 20 22  1  0
 19 23  1  0
 18 24  1  0
 17 25  1  0
 15 26  1  0
 13 27  1  0
 11 28  1  0
 28 29  1  0
 29 30  1  0
 30 31  1  0
 31 32  1  0
 32 33  2  0
 33 34  1  0
 34 35  2  0
 35 36  1  0
 36 37  2  0
 37 38  1  0
 36 39  1  0
 35 40  1  0
 34 41  1  0
 33 42  1  0
 31 43  1  0
 30 44  1  0
 30 45  1  0
 29 46  1  1
 28 47  1  0
 28 48  1  0
  8 49  1  0
 49 50  2  0
 50 51  1  0
 51 52  1  0
 51 53  2  0
 53 54  1  0
 54 55  2  0
 55 56  1  0
 56 57  2  0
 54 58  1  0
 53 59  1  0
 50 60  1  0
  7 61  1  0
  7 62  1  0
  5 63  1  0
  5 64  1  0
  2 65  1  0
  1 66  1  0
  1 67  1  0
  1 68  1  0
 56  6  1  0
 29  8  1  0
 37 32  1  0
 55 49  1  0
 21 12  1  0
 21 16  1  0
M  END
>  <cnnaffinities>  (23) 
[6.76166, 6.97773]

>  <score>  (23) 
6.76166

>  <index>  (23) 
23

>  <Smiles>  (23) 
C(N(C(=O)C(N1C([C@@]2(C(=O)N(c3c(nc(c4c(c(c(c(c34)[H])[H])[H])[H])[H])[H])C([C@@]2(C(N(c2c(c(c(c(c2[H])[H])[H])[H])[H])[H])([H])[H])[H])([H])[H])c2c(c(Cl)c(c(c2C1=O)[H])[H])[H])([H])[H])([H])[H])[H])([H])([H])[H]

>  <h>  (23) 
<NA>

>  <Training>  (23) 
True

>  <Success>  (23) 
True

>  <enamine_searched>  (23) 
False

>  <enamine_id>  (23) 
nan

$$$$

     RDKit          3D

 65 70  0  0  0  0  0  0  0  0999 V2000
   -6.1510   -7.9964  -25.2839 O   0  0  0  0  0  0  0  0  0  0  0  0
   -6.0267   -7.3414  -24.2599 C   0  0  0  0  0  0  0  0  0  0  0  0
   -7.1869   -6.5952  -23.5946 C   0  0  0  0  0  0  0  0  0  0  0  0
   -7.0871   -5.1021  -23.7861 N   0  0  1  0  0  4  0  0  0  0  0  0
   -7.2680   -4.7533  -25.2800 C   0  0  0  0  0  0  0  0  0  0  0  0
   -7.2093   -3.2685  -25.5145 C   0  0  0  0  0  0  0  0  0  0  0  0
   -6.8453   -2.7854  -26.7692 C   0  0  0  0  0  0  0  0  0  0  0  0
   -6.7777   -1.4252  -27.0357 C   0  0  0  0  0  0  0  0  0  0  0  0
   -7.0866   -0.5314  -26.0158 C   0  0  0  0  0  0  0  0  0  0  0  0
   -6.9930    1.1828  -26.3173 Cl  0  0  0  0  0  0  0  0  0  0  0  0
   -7.4679   -0.9866  -24.7634 C   0  0  0  0  0  0  0  0  0  0  0  0
   -7.5454   -2.3617  -24.5064 C   0  0  0  0  0  0  0  0  0  0  0  0
   -7.9446   -2.8168  -23.1145 C   0  0  2  0  0  0  0  0  0  0  0  0
   -9.1892   -2.0964  -22.5701 C   0  0  0  0  0  0  0  0  0  0  0  0
   -8.7229   -1.1451  -21.4610 C   0  0  0  0  0  0  0  0  0  0  0  0
   -7.3221   -1.4866  -21.2437 N   0  0  0  0  0  0  0  0  0  0  0  0
   -6.5524   -0.8835  -20.2073 C   0  0  0  0  0  0  0  0  0  0  0  0
   -6.8998   -1.0473  -18.8884 C   0  0  0  0  0  0  0  0  0  0  0  0
   -6.2308   -0.5035  -17.8431 N   0  0  0  0  0  0  0  0  0  0  0  0
   -5.1774    0.2266  -18.1021 C   0  0  0  0  0  0  0  0  0  0  0  0
   -4.7266    0.5198  -19.4152 C   0  0  0  0  0  0  0  0  0  0  0  0
   -3.6039    1.3598  -19.6427 C   0  0  0  0  0  0  0  0  0  0  0  0
   -3.2208    1.6682  -20.9167 C   0  0  0  0  0  0  0  0  0  0  0  0
   -3.9472    1.1557  -22.0150 C   0  0  0  0  0  0  0  0  0  0  0  0
   -5.0302    0.3358  -21.8244 C   0  0  0  0  0  0  0  0  0  0  0  0
   -5.4409   -0.0262  -20.5106 C   0  0  0  0  0  0  0  0  0  0  0  0
   -5.5840   -0.0416  -22.6828 H   0  0  0  0  0  0  0  0  0  0  0  0
   -3.6423    1.4132  -23.0247 H   0  0  0  0  0  0  0  0  0  0  0  0
   -2.3687    2.3210  -21.0920 H   0  0  0  0  0  0  0  0  0  0  0  0
   -3.0781    1.7632  -18.7798 H   0  0  0  0  0  0  0  0  0  0  0  0
   -4.6251    0.6210  -17.2471 H   0  0  0  0  0  0  0  0  0  0  0  0
   -7.7476   -1.6710  -18.6058 H   0  0  0  0  0  0  0  0  0  0  0  0
   -6.8390   -2.4350  -22.1220 C   0  0  0  0  0  0  0  0  0  0  0  0
   -5.7359   -2.9502  -22.1357 O   0  0  0  0  0  0  0  0  0  0  0  0
   -9.2972   -1.3423  -20.5622 H   0  0  0  0  0  0  0  0  0  0  0  0
   -8.8511   -0.0817  -21.7146 H   0  0  0  0  0  0  0  0  0  0  0  0
   -9.8640   -2.8407  -22.1367 H   0  0  0  0  0  0  0  0  0  0  0  0
   -9.7502   -1.5854  -23.3568 H   0  0  0  0  0  0  0  0  0  0  0  0
   -8.1493   -4.3383  -23.0178 C   0  0  0  0  0  0  0  0  0  0  0  0
   -8.1293   -4.6188  -21.9622 H   0  0  0  0  0  0  0  0  0  0  0  0
   -9.1297   -4.5953  -23.4304 H   0  0  0  0  0  0  0  0  0  0  0  0
   -7.7025   -0.2563  -23.9906 H   0  0  0  0  0  0  0  0  0  0  0  0
   -6.4869   -1.0510  -28.0122 H   0  0  0  0  0  0  0  0  0  0  0  0
   -6.5999   -3.4920  -27.5569 H   0  0  0  0  0  0  0  0  0  0  0  0
   -6.5069   -5.2725  -25.8614 H   0  0  0  0  0  0  0  0  0  0  0  0
   -8.2375   -5.1565  -25.6017 H   0  0  0  0  0  0  0  0  0  0  0  0
   -6.1631   -4.7271  -23.4612 H   0  0  0  0  0  0  0  0  0  0  0  0
   -7.2448   -6.8072  -22.5216 H   0  0  0  0  0  0  0  0  0  0  0  0
   -8.1089   -6.9648  -24.0506 H   0  0  0  0  0  0  0  0  0  0  0  0
   -4.8288   -7.1933  -23.6425 N   0  0  0  0  0  0  0  0  0  0  0  0
   -3.6695   -7.8623  -24.2104 C   0  0  0  0  0  0  0  0  0  0  0  0
   -2.4084   -7.5607  -23.4155 C   0  0  1  0  0  0  0  0  0  0  0  0
   -1.0910   -8.0322  -24.0950 C   0  0  0  0  0  0  0  0  0  0  0  0
   -0.6179   -6.5683  -24.2062 C   0  0  1  0  0  0  0  0  0  0  0  0
   -0.4984   -6.1252  -25.5168 F   0  0  0  0  0  0  0  0  0  0  0  0
   -1.9073   -6.0859  -23.5093 C   0  0  0  0  0  0  0  0  0  0  0  0
   -1.7646   -5.5739  -22.5496 H   0  0  0  0  0  0  0  0  0  0  0  0
   -2.5132   -5.4314  -24.1484 H   0  0  0  0  0  0  0  0  0  0  0  0
    0.3306   -6.3203  -23.7150 H   0  0  0  0  0  0  0  0  0  0  0  0
   -1.2221   -8.5220  -25.0672 H   0  0  0  0  0  0  0  0  0  0  0  0
   -0.4581   -8.6867  -23.4872 H   0  0  0  0  0  0  0  0  0  0  0  0
   -2.5382   -7.9299  -22.3849 H   0  0  0  0  0  0  0  0  0  0  0  0
   -3.5592   -7.5212  -25.2511 H   0  0  0  0  0  0  0  0  0  0  0  0
   -3.8640   -8.9439  -24.2616 H   0  0  0  0  0  0  0  0  0  0  0  0
   -4.7889   -6.7110  -22.7579 H   0  0  0  0  0  0  0  0  0  0  0  0
  1  2  2  0
  2  3  1  0
  3  4  1  0
  4  5  1  0
  5  6  1  0
  6  7  2  0
  7  8  1  0
  8  9  2  0
  9 10  1  0
  9 11  1  0
 11 12  2  0
 12 13  1  0
 13 14  1  1
 14 15  1  0
 15 16  1  0
 16 17  1  0
 17 18  2  0
 18 19  1  0
 19 20  2  0
 20 21  1  0
 21 22  2  0
 22 23  1  0
 23 24  2  0
 24 25  1  0
 25 26  2  0
 25 27  1  0
 24 28  1  0
 23 29  1  0
 22 30  1  0
 20 31  1  0
 18 32  1  0
 16 33  1  0
 33 34  2  0
 15 35  1  0
 15 36  1  0
 14 37  1  0
 14 38  1  0
 13 39  1  0
 39 40  1  0
 39 41  1  0
 11 42  1  0
  8 43  1  0
  7 44  1  0
  5 45  1  0
  5 46  1  0
  4 47  1  1
  3 48  1  0
  3 49  1  0
  2 50  1  0
 50 51  1  0
 51 52  1  0
 52 53  1  0
 53 54  1  0
 54 55  1  0
 54 56  1  0
 56 57  1  0
 56 58  1  0
 54 59  1  1
 53 60  1  0
 53 61  1  0
 52 62  1  1
 51 63  1  0
 51 64  1  0
 50 65  1  0
 39  4  1  0
 56 52  1  0
 12  6  1  0
 33 13  1  0
 26 17  1  0
 26 21  1  0
M  CHG  1   4   1
M  END
>  <cnnaffinities>  (24) 
[6.3313, 6.43363, 6.21191, 6.23505]

>  <score>  (24) 
6.3313

>  <index>  (24) 
24

>  <Smiles>  (24) 
O=C(C([N@+]1(C(c2c(c(c(Cl)c(c2[C@@]2(C(C(N(c3c(nc(c4c(c(c(c(c34)[H])[H])[H])[H])[H])[H])C2=O)([H])[H])([H])[H])C1([H])[H])[H])[H])[H])([H])[H])[H])([H])[H])N(C([C@]1(C([C@@](F)(C1([H])[H])[H])([H])[H])[H])([H])[H])[H]

>  <h>  (24) 
<NA>

>  <Training>  (24) 
True

>  <Success>  (24) 
True

>  <enamine_searched>  (24) 
False

>  <enamine_id>  (24) 
nan

$$$$

     RDKit          3D

 70 75  0  0  0  0  0  0  0  0999 V2000
   -5.8249   -7.7023  -25.5345 O   0  0  0  0  0  0  0  0  0  0  0  0
   -5.6701   -7.1064  -24.4863 C   0  0  0  0  0  0  0  0  0  0  0  0
   -6.8314   -6.3735  -23.8139 C   0  0  0  0  0  0  0  0  0  0  0  0
   -6.8011   -4.8867  -23.9351 N   0  0  1  0  0  4  0  0  0  0  0  0
   -6.7485   -4.5134  -25.3987 C   0  0  0  0  0  0  0  0  0  0  0  0
   -6.7663   -3.0216  -25.6138 C   0  0  0  0  0  0  0  0  0  0  0  0
   -6.2877   -2.4748  -26.8047 C   0  0  0  0  0  0  0  0  0  0  0  0
   -6.3152   -1.1054  -27.0271 C   0  0  0  0  0  0  0  0  0  0  0  0
   -6.8322   -0.2750  -26.0364 C   0  0  0  0  0  0  0  0  0  0  0  0
   -6.8415    1.4517  -26.2846 Cl  0  0  0  0  0  0  0  0  0  0  0  0
   -7.3187   -0.8012  -24.8474 C   0  0  0  0  0  0  0  0  0  0  0  0
   -7.3095   -2.1847  -24.6445 C   0  0  0  0  0  0  0  0  0  0  0  0
   -7.8179   -2.7331  -23.3320 C   0  0  2  0  0  0  0  0  0  0  0  0
   -6.7989   -2.4335  -22.2354 C   0  0  0  0  0  0  0  0  0  0  0  0
   -5.7122   -2.9900  -22.2084 O   0  0  0  0  0  0  0  0  0  0  0  0
   -7.2528   -1.5099  -21.3180 N   0  0  0  0  0  0  0  0  0  0  0  0
   -6.5145   -0.8940  -20.2793 C   0  0  0  0  0  0  0  0  0  0  0  0
   -6.9076   -1.0525  -18.9747 C   0  0  0  0  0  0  0  0  0  0  0  0
   -6.2676   -0.5203  -17.9065 N   0  0  0  0  0  0  0  0  0  0  0  0
   -5.2055    0.2104  -18.1393 C   0  0  0  0  0  0  0  0  0  0  0  0
   -4.7311    0.5150  -19.4427 C   0  0  0  0  0  0  0  0  0  0  0  0
   -3.6109    1.3625  -19.6517 C   0  0  0  0  0  0  0  0  0  0  0  0
   -3.2297    1.6971  -20.9209 C   0  0  0  0  0  0  0  0  0  0  0  0
   -3.9467    1.2077  -22.0354 C   0  0  0  0  0  0  0  0  0  0  0  0
   -5.0178    0.3674  -21.8635 C   0  0  0  0  0  0  0  0  0  0  0  0
   -5.4175   -0.0228  -20.5547 C   0  0  0  0  0  0  0  0  0  0  0  0
   -5.5714    0.0076  -22.7255 H   0  0  0  0  0  0  0  0  0  0  0  0
   -3.6483    1.5101  -23.0339 H   0  0  0  0  0  0  0  0  0  0  0  0
   -2.3848    2.3591  -21.0806 H   0  0  0  0  0  0  0  0  0  0  0  0
   -3.0782    1.7472  -18.7863 H   0  0  0  0  0  0  0  0  0  0  0  0
   -4.6747    0.6152  -17.2771 H   0  0  0  0  0  0  0  0  0  0  0  0
   -7.7875   -1.6534  -18.7469 H   0  0  0  0  0  0  0  0  0  0  0  0
   -8.2589   -1.4145  -21.2527 H   0  0  0  0  0  0  0  0  0  0  0  0
   -8.0290   -4.2446  -23.3365 C   0  0  0  0  0  0  0  0  0  0  0  0
   -8.9166   -4.5401  -23.9111 H   0  0  0  0  0  0  0  0  0  0  0  0
   -8.1452   -4.6010  -22.3121 H   0  0  0  0  0  0  0  0  0  0  0  0
   -8.7507   -2.2238  -23.0850 H   0  0  0  0  0  0  0  0  0  0  0  0
   -7.6952   -0.1313  -24.0761 H   0  0  0  0  0  0  0  0  0  0  0  0
   -5.9315   -0.6840  -27.9517 H   0  0  0  0  0  0  0  0  0  0  0  0
   -5.8833   -3.1270  -27.5756 H   0  0  0  0  0  0  0  0  0  0  0  0
   -7.6214   -4.9788  -25.8805 H   0  0  0  0  0  0  0  0  0  0  0  0
   -5.8560   -4.9602  -25.8376 H   0  0  0  0  0  0  0  0  0  0  0  0
   -5.9880   -4.4673  -23.4319 H   0  0  0  0  0  0  0  0  0  0  0  0
   -7.7390   -6.7311  -24.3091 H   0  0  0  0  0  0  0  0  0  0  0  0
   -6.8657   -6.6610  -22.7618 H   0  0  0  0  0  0  0  0  0  0  0  0
   -4.4732   -7.0531  -23.8165 N   0  0  0  0  0  0  0  0  0  0  0  0
   -3.2808   -7.6644  -24.2587 C   0  0  0  0  0  0  0  0  0  0  0  0
   -2.0504   -7.0779  -23.9536 C   0  0  0  0  0  0  0  0  0  0  0  0
   -0.8675   -7.6596  -24.3863 C   0  0  0  0  0  0  0  0  0  0  0  0
   -0.8999   -8.8280  -25.1415 C   0  0  0  0  0  0  0  0  0  0  0  0
    0.3083   -9.4645  -25.5359 N   0  0  0  0  0  0  0  0  0  0  0  0
    1.2677   -9.8291  -24.4927 C   0  0  0  0  0  0  0  0  0  0  0  0
    2.5968  -10.1980  -25.1255 C   0  0  0  0  0  0  0  0  0  0  0  0
    2.3859  -11.1676  -26.1290 O   0  0  0  0  0  0  0  0  0  0  0  0
    1.6870  -10.6245  -27.2176 C   0  0  0  0  0  0  0  0  0  0  0  0
    0.4003   -9.9118  -26.8334 C   0  0  0  0  0  0  0  0  0  0  0  0
   -0.4515   -9.6991  -27.6787 O   0  0  0  0  0  0  0  0  0  0  0  0
    2.3017   -9.9014  -27.7795 H   0  0  0  0  0  0  0  0  0  0  0  0
    1.4294  -11.4324  -27.9060 H   0  0  0  0  0  0  0  0  0  0  0  0
    3.0991   -9.3074  -25.5390 H   0  0  0  0  0  0  0  0  0  0  0  0
    3.2538  -10.6481  -24.3760 H   0  0  0  0  0  0  0  0  0  0  0  0
    1.4028   -8.9945  -23.7967 H   0  0  0  0  0  0  0  0  0  0  0  0
    0.8841  -10.6770  -23.9089 H   0  0  0  0  0  0  0  0  0  0  0  0
   -2.1306   -9.3923  -25.4671 C   0  0  0  0  0  0  0  0  0  0  0  0
   -3.3078   -8.8512  -24.9863 C   0  0  0  0  0  0  0  0  0  0  0  0
   -4.2430   -9.3485  -25.1981 H   0  0  0  0  0  0  0  0  0  0  0  0
   -2.1743  -10.2482  -26.1299 H   0  0  0  0  0  0  0  0  0  0  0  0
    0.0914   -7.1958  -24.1653 H   0  0  0  0  0  0  0  0  0  0  0  0
   -2.0068   -6.1441  -23.4035 H   0  0  0  0  0  0  0  0  0  0  0  0
   -4.3986   -6.4965  -22.9799 H   0  0  0  0  0  0  0  0  0  0  0  0
  1  2  2  0
  2  3  1  0
  3  4  1  0
  4  5  1  0
  5  6  1  0
  6  7  2  0
  7  8  1  0
  8  9  2  0
  9 10  1  0
  9 11  1  0
 11 12  2  0
 12 13  1  0
 13 14  1  0
 14 15  2  0
 14 16  1  0
 16 17  1  0
 17 18  2  0
 18 19  1  0
 19 20  2  0
 20 21  1  0
 21 22  2  0
 22 23  1  0
 23 24  2  0
 24 25  1  0
 25 26  2  0
 25 27  1  0
 24 28  1  0
 23 29  1  0
 22 30  1  0
 20 31  1  0
 18 32  1  0
 16 33  1  0
 13 34  1  0
 34 35  1  0
 34 36  1  0
 13 37  1  1
 11 38  1  0
  8 39  1  0
  7 40  1  0
  5 41  1  0
  5 42  1  0
  4 43  1  1
  3 44  1  0
  3 45  1  0
  2 46  1  0
 46 47  1  0
 47 48  2  0
 48 49  1  0
 49 50  2  0
 50 51  1  0
 51 52  1  0
 52 53  1  0
 53 54  1  0
 54 55  1  0
 55 56  1  0
 56 57  2  0
 55 58  1  0
 55 59  1  0
 53 60  1  0
 53 61  1  0
 52 62  1  0
 52 63  1  0
 50 64  1  0
 64 65  2  0
 65 66  1  0
 64 67  1  0
 49 68  1  0
 48 69  1  0
 46 70  1  0
 34  4  1  0
 65 47  1  0
 12  6  1  0
 26 17  1  0
 56 51  1  0
 26 21  1  0
M  CHG  1   4   1
M  END
>  <cnnaffinities>  (25) 
[6.1566]

>  <score>  (25) 
6.1566

>  <index>  (25) 
25

>  <Smiles>  (25) 
O=C(C([N@+]1(C(c2c(c(c(Cl)c(c2[C@](C(=O)N(c2c(nc(c3c(c(c(c(c23)[H])[H])[H])[H])[H])[H])[H])(C1([H])[H])[H])[H])[H])[H])([H])[H])[H])([H])[H])N(c1c(c(c(N2C(C(OC(C2=O)([H])[H])([H])[H])([H])[H])c(c1[H])[H])[H])[H])[H]

>  <h>  (25) 
<NA>

>  <Training>  (25) 
True

>  <Success>  (25) 
True

>  <enamine_searched>  (25) 
False

>  <enamine_id>  (25) 
nan

$$$$

     RDKit          3D

 55 60  0  0  0  0  0  0  0  0999 V2000
  -10.4948   -1.1568  -23.2678 C   0  0  0  0  0  0  0  0  0  0  0  0
   -9.0428   -1.4828  -22.9442 C   0  0  1  0  0  0  0  0  0  0  0  0
   -8.4311   -0.5138  -21.9170 C   0  0  0  0  0  0  0  0  0  0  0  0
   -7.4315   -1.3200  -21.2435 N   0  0  0  0  0  0  0  0  0  0  0  0
   -6.5991   -0.8160  -20.2143 C   0  0  0  0  0  0  0  0  0  0  0  0
   -6.9117   -1.0429  -18.8982 C   0  0  0  0  0  0  0  0  0  0  0  0
   -6.2451   -0.4967  -17.8520 N   0  0  0  0  0  0  0  0  0  0  0  0
   -5.2065    0.2542  -18.1111 C   0  0  0  0  0  0  0  0  0  0  0  0
   -4.7503    0.5422  -19.4274 C   0  0  0  0  0  0  0  0  0  0  0  0
   -3.6102    1.3511  -19.6592 C   0  0  0  0  0  0  0  0  0  0  0  0
   -3.2035    1.6154  -20.9364 C   0  0  0  0  0  0  0  0  0  0  0  0
   -3.9104    1.0783  -22.0338 C   0  0  0  0  0  0  0  0  0  0  0  0
   -5.0157    0.2865  -21.8362 C   0  0  0  0  0  0  0  0  0  0  0  0
   -5.4669    0.0037  -20.5197 C   0  0  0  0  0  0  0  0  0  0  0  0
   -5.5403   -0.1397  -22.6845 H   0  0  0  0  0  0  0  0  0  0  0  0
   -3.5758    1.2985  -23.0421 H   0  0  0  0  0  0  0  0  0  0  0  0
   -2.3427    2.2529  -21.1146 H   0  0  0  0  0  0  0  0  0  0  0  0
   -3.0808    1.7581  -18.8030 H   0  0  0  0  0  0  0  0  0  0  0  0
   -4.6575    0.6640  -17.2609 H   0  0  0  0  0  0  0  0  0  0  0  0
   -7.7574   -1.6747  -18.6402 H   0  0  0  0  0  0  0  0  0  0  0  0
   -7.5407   -2.6696  -21.4994 C   0  0  0  0  0  0  0  0  0  0  0  0
   -6.7323   -3.4979  -21.1377 O   0  0  0  0  0  0  0  0  0  0  0  0
   -8.7914   -2.9133  -22.3569 C   0  0  1  0  0  0  0  0  0  0  0  0
   -9.9652   -3.3884  -21.4740 C   0  0  0  0  0  0  0  0  0  0  0  0
  -11.0925   -3.8738  -22.2539 N   0  0  0  0  0  0  0  0  0  0  0  0
  -12.4500   -3.8177  -21.7243 C   0  0  0  0  0  0  0  0  0  0  0  0
  -13.3121   -2.6969  -22.2370 C   0  0  0  0  0  0  0  0  0  0  0  0
  -13.9920   -2.7353  -23.4625 C   0  0  0  0  0  0  0  0  0  0  0  0
  -14.7373   -1.6372  -23.5822 N   0  0  0  0  0  0  0  0  0  0  0  0
  -14.4647   -0.9814  -22.4738 N   0  0  0  0  0  0  0  0  0  0  0  0
  -13.6271   -1.5592  -21.6250 N   0  0  0  0  0  0  0  0  0  0  0  0
  -14.9475   -0.1248  -22.2259 H   0  0  0  0  0  0  0  0  0  0  0  0
  -13.9709   -3.5247  -24.1960 H   0  0  0  0  0  0  0  0  0  0  0  0
  -12.4471   -3.8552  -20.6326 H   0  0  0  0  0  0  0  0  0  0  0  0
  -12.9290   -4.7122  -22.1278 H   0  0  0  0  0  0  0  0  0  0  0  0
  -10.9459   -4.5712  -23.4198 C   0  0  0  0  0  0  0  0  0  0  0  0
  -11.9099   -4.9800  -24.0606 O   0  0  0  0  0  0  0  0  0  0  0  0
   -9.5491   -4.7783  -23.8796 C   0  0  0  0  0  0  0  0  0  0  0  0
   -9.2976   -5.7561  -24.8375 C   0  0  0  0  0  0  0  0  0  0  0  0
   -8.0411   -5.9018  -25.3913 C   0  0  0  0  0  0  0  0  0  0  0  0
   -7.0470   -5.0396  -24.9445 C   0  0  0  0  0  0  0  0  0  0  0  0
   -5.8317   -5.1258  -25.5047 F   0  0  0  0  0  0  0  0  0  0  0  0
   -7.2510   -4.0949  -23.9609 C   0  0  0  0  0  0  0  0  0  0  0  0
   -8.5231   -3.9624  -23.4013 C   0  0  0  0  0  0  0  0  0  0  0  0
   -6.4188   -3.4856  -23.6246 H   0  0  0  0  0  0  0  0  0  0  0  0
   -7.8154   -6.6482  -26.1487 H   0  0  0  0  0  0  0  0  0  0  0  0
  -10.1126   -6.3956  -25.1471 H   0  0  0  0  0  0  0  0  0  0  0  0
  -10.3064   -2.5313  -20.8895 H   0  0  0  0  0  0  0  0  0  0  0  0
   -9.6313   -4.1805  -20.8005 H   0  0  0  0  0  0  0  0  0  0  0  0
   -9.1924   -0.1454  -21.2074 H   0  0  0  0  0  0  0  0  0  0  0  0
   -7.9678    0.3514  -22.4067 H   0  0  0  0  0  0  0  0  0  0  0  0
   -8.4374   -1.4410  -23.8608 H   0  0  0  0  0  0  0  0  0  0  0  0
  -10.5725   -0.1978  -23.7874 H   0  0  0  0  0  0  0  0  0  0  0  0
  -10.9432   -1.9440  -23.8837 H   0  0  0  0  0  0  0  0  0  0  0  0
  -11.0795   -1.0997  -22.3436 H   0  0  0  0  0  0  0  0  0  0  0  0
  1  2  1  0
  2  3  1  0
  3  4  1  0
  4  5  1  0
  5  6  2  0
  6  7  1  0
  7  8  2  0
  8  9  1  0
  9 10  2  0
 10 11  1  0
 11 12  2  0
 12 13  1  0
 13 14  2  0
 13 15  1  0
 12 16  1  0
 11 17  1  0
 10 18  1  0
  8 19  1  0
  6 20  1  0
  4 21  1  0
 21 22  2  0
 21 23  1  0
 23 24  1  1
 24 25  1  0
 25 26  1  0
 26 27  1  0
 27 28  1  0
 28 29  2  0
 29 30  1  0
 30 31  1  0
 30 32  1  0
 28 33  1  0
 26 34  1  0
 26 35  1  0
 25 36  1  0
 36 37  2  0
 36 38  1  0
 38 39  2  0
 39 40  1  0
 40 41  2  0
 41 42  1  0
 41 43  1  0
 43 44  2  0
 43 45  1  0
 40 46  1  0
 39 47  1  0
 24 48  1  0
 24 49  1  0
  3 50  1  0
  3 51  1  0
  2 52  1  6
  1 53  1  0
  1 54  1  0
  1 55  1  0
 23  2  1  0
 31 27  2  0
 44 38  1  0
 14  5  1  0
 44 23  1  0
 14  9  1  0
M  END
>  <cnnaffinities>  (26) 
[6.82869, 6.75525]

>  <score>  (26) 
6.82869

>  <index>  (26) 
26

>  <Smiles>  (26) 
C([C@]1(C(N(c2c(nc(c3c(c(c(c(c23)[H])[H])[H])[H])[H])[H])C(=O)[C@]21C(N(C(c1c(nn(n1)[H])[H])([H])[H])C(=O)c1c(c(c(F)c(c21)[H])[H])[H])([H])[H])([H])[H])[H])([H])([H])[H]

>  <h>  (26) 
<NA>

>  <Training>  (26) 
True

>  <Success>  (26) 
True

>  <enamine_searched>  (26) 
False

>  <enamine_id>  (26) 
nan

$$$$

     RDKit          3D

 58 62  0  0  0  0  0  0  0  0999 V2000
   -8.4931   -0.9527  -29.4120 C   0  0  0  0  0  0  0  0  0  0  0  0
   -7.9654   -0.4447  -28.1242 N   0  0  0  0  0  4  0  0  0  0  0  0
   -6.9407   -1.3391  -27.5079 C   0  0  0  0  0  0  0  0  0  0  0  0
   -7.6269   -2.4419  -26.6936 C   0  0  0  0  0  0  0  0  0  0  0  0
   -8.4960   -1.8677  -25.6742 N   0  0  0  0  0  0  0  0  0  0  0  0
   -7.9137   -1.2644  -24.4913 C   0  0  0  0  0  0  0  0  0  0  0  0
   -8.7465   -1.5475  -23.2223 C   0  0  2  0  0  0  0  0  0  0  0  0
   -8.2130   -0.5810  -22.1573 C   0  0  0  0  0  0  0  0  0  0  0  0
   -8.3991    0.6118  -22.0807 O   0  0  0  0  0  0  0  0  0  0  0  0
   -7.3885   -1.2906  -21.3131 N   0  0  0  0  0  0  0  0  0  0  0  0
   -6.6220   -0.7019  -20.2864 C   0  0  0  0  0  0  0  0  0  0  0  0
   -6.9509   -0.9608  -18.9823 C   0  0  0  0  0  0  0  0  0  0  0  0
   -6.2867   -0.4622  -17.9145 N   0  0  0  0  0  0  0  0  0  0  0  0
   -5.2352    0.2823  -18.1522 C   0  0  0  0  0  0  0  0  0  0  0  0
   -4.7510    0.5840  -19.4559 C   0  0  0  0  0  0  0  0  0  0  0  0
   -3.5927    1.3799  -19.6594 C   0  0  0  0  0  0  0  0  0  0  0  0
   -3.1439    1.6381  -20.9241 C   0  0  0  0  0  0  0  0  0  0  0  0
   -3.8207    1.1034  -22.0463 C   0  0  0  0  0  0  0  0  0  0  0  0
   -4.9467    0.3359  -21.8768 C   0  0  0  0  0  0  0  0  0  0  0  0
   -5.4541    0.0747  -20.5714 C   0  0  0  0  0  0  0  0  0  0  0  0
   -5.4573   -0.0770  -22.7443 H   0  0  0  0  0  0  0  0  0  0  0  0
   -3.4494    1.3159  -23.0446 H   0  0  0  0  0  0  0  0  0  0  0  0
   -2.2661    2.2609  -21.0740 H   0  0  0  0  0  0  0  0  0  0  0  0
   -3.0878    1.7782  -18.7825 H   0  0  0  0  0  0  0  0  0  0  0  0
   -4.7026    0.6834  -17.2895 H   0  0  0  0  0  0  0  0  0  0  0  0
   -7.8099   -1.5937  -18.7563 H   0  0  0  0  0  0  0  0  0  0  0  0
   -7.3099   -2.7031  -21.5896 C   0  0  0  0  0  0  0  0  0  0  0  0
   -8.4831   -2.9297  -22.5396 C   0  0  2  0  0  0  0  0  0  0  0  0
   -8.2992   -4.1348  -23.4480 C   0  0  0  0  0  0  0  0  0  0  0  0
   -7.3796   -4.0541  -24.0412 H   0  0  0  0  0  0  0  0  0  0  0  0
   -8.2265   -5.0515  -22.8533 H   0  0  0  0  0  0  0  0  0  0  0  0
   -9.1440   -4.2374  -24.1343 H   0  0  0  0  0  0  0  0  0  0  0  0
   -9.3690   -3.0961  -21.9093 H   0  0  0  0  0  0  0  0  0  0  0  0
   -7.4131   -3.2655  -20.6631 H   0  0  0  0  0  0  0  0  0  0  0  0
   -6.3391   -2.9867  -22.0259 H   0  0  0  0  0  0  0  0  0  0  0  0
  -10.2192   -1.3658  -23.5235 C   0  0  0  0  0  0  0  0  0  0  0  0
  -11.1385   -1.1480  -22.4888 C   0  0  0  0  0  0  0  0  0  0  0  0
  -12.4911   -1.1028  -22.7794 C   0  0  0  0  0  0  0  0  0  0  0  0
  -13.3588   -0.9043  -21.7770 F   0  0  0  0  0  0  0  0  0  0  0  0
  -13.0120   -1.2934  -24.0550 C   0  0  0  0  0  0  0  0  0  0  0  0
  -12.0965   -1.4893  -25.0703 C   0  0  0  0  0  0  0  0  0  0  0  0
  -10.7250   -1.5005  -24.8192 C   0  0  0  0  0  0  0  0  0  0  0  0
   -9.8142   -1.7135  -25.9680 C   0  0  0  0  0  0  0  0  0  0  0  0
  -10.2326   -1.7647  -27.1244 O   0  0  0  0  0  0  0  0  0  0  0  0
  -12.4195   -1.6717  -26.0861 H   0  0  0  0  0  0  0  0  0  0  0  0
  -14.0889   -1.3234  -24.2099 H   0  0  0  0  0  0  0  0  0  0  0  0
  -10.8247   -1.0448  -21.4534 H   0  0  0  0  0  0  0  0  0  0  0  0
   -6.8886   -1.6295  -24.3603 H   0  0  0  0  0  0  0  0  0  0  0  0
   -7.8366   -0.1717  -24.5911 H   0  0  0  0  0  0  0  0  0  0  0  0
   -8.2721   -3.0425  -27.3431 H   0  0  0  0  0  0  0  0  0  0  0  0
   -6.8954   -3.1175  -26.2268 H   0  0  0  0  0  0  0  0  0  0  0  0
   -6.3046   -0.7411  -26.8533 H   0  0  0  0  0  0  0  0  0  0  0  0
   -6.3092   -1.7606  -28.2958 H   0  0  0  0  0  0  0  0  0  0  0  0
   -8.7678   -0.3677  -27.4779 H   0  0  0  0  0  0  0  0  0  0  0  0
   -7.5839    0.5112  -28.2527 H   0  0  0  0  0  0  0  0  0  0  0  0
   -8.9664   -0.1433  -29.9629 H   0  0  0  0  0  0  0  0  0  0  0  0
   -9.2320   -1.7266  -29.2304 H   0  0  0  0  0  0  0  0  0  0  0  0
   -7.6837   -1.3669  -30.0126 H   0  0  0  0  0  0  0  0  0  0  0  0
  1  2  1  0
  2  3  1  0
  3  4  1  0
  4  5  1  0
  5  6  1  0
  7  6  1  6
  7  8  1  0
  8  9  2  0
  8 10  1  0
 10 11  1  0
 11 12  2  0
 12 13  1  0
 13 14  2  0
 14 15  1  0
 15 16  2  0
 16 17  1  0
 17 18  2  0
 18 19  1  0
 19 20  2  0
 19 21  1  0
 18 22  1  0
 17 23  1  0
 16 24  1  0
 14 25  1  0
 12 26  1  0
 10 27  1  0
 27 28  1  0
 28 29  1  0
 29 30  1  0
 29 31  1  0
 29 32  1  0
 28 33  1  1
 27 34  1  0
 27 35  1  0
  7 36  1  0
 36 37  2  0
 37 38  1  0
 38 39  1  0
 38 40  2  0
 40 41  1  0
 41 42  2  0
 42 43  1  0
 43 44  2  0
 41 45  1  0
 40 46  1  0
 37 47  1  0
  6 48  1  0
  6 49  1  0
  4 50  1  0
  4 51  1  0
  3 52  1  0
  3 53  1  0
  2 54  1  0
  2 55  1  0
  1 56  1  0
  1 57  1  0
  1 58  1  0
 43  5  1  0
 28  7  1  0
 42 36  1  0
 20 11  1  0
 20 15  1  0
M  CHG  1   2   1
M  END
>  <cnnaffinities>  (27) 
[6.21736, 6.00997, 5.8594]

>  <score>  (27) 
6.21736

>  <index>  (27) 
27

>  <Smiles>  (27) 
C([N+](C(C(N1C([C@@]2(C(=O)N(c3c(nc(c4c(c(c(c(c34)[H])[H])[H])[H])[H])[H])C([C@@]2(C([H])([H])[H])[H])([H])[H])c2c(c(F)c(c(c2C1=O)[H])[H])[H])([H])[H])([H])[H])([H])[H])([H])[H])([H])([H])[H]

>  <h>  (27) 
<NA>

>  <Training>  (27) 
True

>  <Success>  (27) 
True

>  <enamine_searched>  (27) 
False

>  <enamine_id>  (27) 
nan

$$$$

     RDKit          3D

 64 68  0  0  0  0  0  0  0  0999 V2000
   -7.4847    3.1226  -21.8487 C   0  0  0  0  0  0  0  0  0  0  0  0
   -8.6237    2.5709  -22.5583 N   0  0  0  0  0  0  0  0  0  0  0  0
   -8.3808    1.7558  -23.6251 C   0  0  0  0  0  0  0  0  0  0  0  0
   -7.2508    1.4323  -23.9616 O   0  0  0  0  0  0  0  0  0  0  0  0
   -9.6019    1.2671  -24.3945 C   0  0  0  0  0  0  0  0  0  0  0  0
  -10.0634   -0.0039  -23.8839 N   0  0  0  0  0  0  0  0  0  0  0  0
   -9.1982   -1.1753  -23.9122 C   0  0  0  0  0  0  0  0  0  0  0  0
   -9.2957   -1.9423  -22.5654 C   0  0  2  0  0  0  0  0  0  0  0  0
   -8.7047   -1.0191  -21.4612 C   0  0  0  0  0  0  0  0  0  0  0  0
   -9.2340   -0.0505  -20.9566 O   0  0  0  0  0  0  0  0  0  0  0  0
   -7.4128   -1.4362  -21.1891 N   0  0  0  0  0  0  0  0  0  0  0  0
   -6.6239   -0.8231  -20.1856 C   0  0  0  0  0  0  0  0  0  0  0  0
   -6.9552   -1.0026  -18.8647 C   0  0  0  0  0  0  0  0  0  0  0  0
   -6.2612   -0.4798  -17.8306 N   0  0  0  0  0  0  0  0  0  0  0  0
   -5.2005    0.2342  -18.1098 C   0  0  0  0  0  0  0  0  0  0  0  0
   -4.7529    0.5148  -19.4286 C   0  0  0  0  0  0  0  0  0  0  0  0
   -3.6252    1.3426  -19.6679 C   0  0  0  0  0  0  0  0  0  0  0  0
   -3.2483    1.6457  -20.9466 C   0  0  0  0  0  0  0  0  0  0  0  0
   -3.9831    1.1362  -22.0394 C   0  0  0  0  0  0  0  0  0  0  0  0
   -5.0802    0.3277  -21.8342 C   0  0  0  0  0  0  0  0  0  0  0  0
   -5.4858   -0.0202  -20.5156 C   0  0  0  0  0  0  0  0  0  0  0  0
   -5.6733    0.0173  -22.6890 H   0  0  0  0  0  0  0  0  0  0  0  0
   -3.6890    1.3988  -23.0514 H   0  0  0  0  0  0  0  0  0  0  0  0
   -2.3970    2.2972  -21.1259 H   0  0  0  0  0  0  0  0  0  0  0  0
   -3.0906    1.7432  -18.8110 H   0  0  0  0  0  0  0  0  0  0  0  0
   -4.6407    0.6428  -17.2688 H   0  0  0  0  0  0  0  0  0  0  0  0
   -7.8195   -1.6102  -18.6082 H   0  0  0  0  0  0  0  0  0  0  0  0
   -6.9830   -2.5759  -21.9732 C   0  0  0  0  0  0  0  0  0  0  0  0
   -8.3217   -3.1490  -22.4793 C   0  0  2  0  0  0  0  0  0  0  0  0
   -8.1950   -3.9746  -23.7555 C   0  0  0  0  0  0  0  0  0  0  0  0
   -7.3680   -5.5202  -23.4412 S   0  0  0  0  0  0  0  0  0  0  0  0
   -8.1713   -6.2933  -22.4998 O   0  0  0  0  0  0  0  0  0  0  0  0
   -5.9693   -5.2706  -23.1296 O   0  0  0  0  0  0  0  0  0  0  0  0
   -7.3741   -6.1769  -24.9727 N   0  0  0  0  0  0  0  0  0  0  0  0
   -8.5994   -6.7703  -25.5006 C   0  0  0  0  0  0  0  0  0  0  0  0
   -9.1002   -7.4365  -24.7864 H   0  0  0  0  0  0  0  0  0  0  0  0
   -8.3189   -7.3361  -26.3911 H   0  0  0  0  0  0  0  0  0  0  0  0
   -9.2953   -5.9877  -25.8281 H   0  0  0  0  0  0  0  0  0  0  0  0
   -6.5334   -6.7333  -25.0821 H   0  0  0  0  0  0  0  0  0  0  0  0
   -9.1855   -4.2207  -24.1495 H   0  0  0  0  0  0  0  0  0  0  0  0
   -7.6217   -3.4582  -24.5332 H   0  0  0  0  0  0  0  0  0  0  0  0
   -8.6845   -3.8164  -21.6922 H   0  0  0  0  0  0  0  0  0  0  0  0
   -6.3284   -2.2725  -22.8063 H   0  0  0  0  0  0  0  0  0  0  0  0
   -6.4322   -3.3031  -21.3694 H   0  0  0  0  0  0  0  0  0  0  0  0
  -10.7751   -2.2508  -22.3503 C   0  0  0  0  0  0  0  0  0  0  0  0
  -11.2381   -3.3452  -21.6070 C   0  0  0  0  0  0  0  0  0  0  0  0
  -12.5740   -3.4088  -21.2347 C   0  0  0  0  0  0  0  0  0  0  0  0
  -13.0986   -4.4933  -19.9855 Cl  0  0  0  0  0  0  0  0  0  0  0  0
  -13.5312   -2.5308  -21.7304 C   0  0  0  0  0  0  0  0  0  0  0  0
  -13.1000   -1.4981  -22.5259 C   0  0  0  0  0  0  0  0  0  0  0  0
  -11.7438   -1.3351  -22.7873 C   0  0  0  0  0  0  0  0  0  0  0  0
  -11.3666   -0.0882  -23.5020 C   0  0  0  0  0  0  0  0  0  0  0  0
  -12.1855    0.8040  -23.7092 O   0  0  0  0  0  0  0  0  0  0  0  0
  -13.7886   -0.7669  -22.9291 H   0  0  0  0  0  0  0  0  0  0  0  0
  -14.5707   -2.6367  -21.4407 H   0  0  0  0  0  0  0  0  0  0  0  0
  -10.5674   -4.1175  -21.2511 H   0  0  0  0  0  0  0  0  0  0  0  0
   -8.1749   -0.8334  -24.0935 H   0  0  0  0  0  0  0  0  0  0  0  0
   -9.4990   -1.8384  -24.7363 H   0  0  0  0  0  0  0  0  0  0  0  0
  -10.4287    1.9649  -24.2552 H   0  0  0  0  0  0  0  0  0  0  0  0
   -9.3701    1.1852  -25.4678 H   0  0  0  0  0  0  0  0  0  0  0  0
   -9.4892    2.4779  -22.0380 H   0  0  0  0  0  0  0  0  0  0  0  0
   -6.8816    2.3309  -21.3956 H   0  0  0  0  0  0  0  0  0  0  0  0
   -7.8267    3.7897  -21.0617 H   0  0  0  0  0  0  0  0  0  0  0  0
   -6.8542    3.7061  -22.5236 H   0  0  0  0  0  0  0  0  0  0  0  0
  1  2  1  0
  2  3  1  0
  3  4  2  0
  3  5  1  0
  5  6  1  0
  6  7  1  0
  8  7  1  6
  8  9  1  0
  9 10  2  0
  9 11  1  0
 11 12  1  0
 12 13  2  0
 13 14  1  0
 14 15  2  0
 15 16  1  0
 16 17  2  0
 17 18  1  0
 18 19  2  0
 19 20  1  0
 20 21  2  0
 20 22  1  0
 19 23  1  0
 18 24  1  0
 17 25  1  0
 15 26  1  0
 13 27  1  0
 11 28  1  0
 28 29  1  0
 29 30  1  0
 30 31  1  0
 31 32  2  0
 31 33  2  0
 31 34  1  0
 34 35  1  0
 35 36  1  0
 35 37  1  0
 35 38  1  0
 34 39  1  0
 30 40  1  0
 30 41  1  0
 29 42  1  1
 28 43  1  0
 28 44  1  0
  8 45  1  0
 45 46  2  0
 46 47  1  0
 47 48  1  0
 47 49  2  0
 49 50  1  0
 50 51  2  0
 51 52  1  0
 52 53  2  0
 50 54  1  0
 49 55  1  0
 46 56  1  0
  7 57  1  0
  7 58  1  0
  5 59  1  0
  5 60  1  0
  2 61  1  0
  1 62  1  0
  1 63  1  0
  1 64  1  0
 52  6  1  0
 29  8  1  0
 51 45  1  0
 21 12  1  0
 21 16  1  0
M  END
>  <cnnaffinities>  (28) 
[6.57792, 6.58525]

>  <score>  (28) 
6.57792

>  <index>  (28) 
28

>  <Smiles>  (28) 
C(N(C(=O)C(N1C([C@@]2(C(=O)N(c3c(nc(c4c(c(c(c(c34)[H])[H])[H])[H])[H])[H])C([C@@]2(C(S(=O)(=O)N(C([H])([H])[H])[H])([H])[H])[H])([H])[H])c2c(c(Cl)c(c(c2C1=O)[H])[H])[H])([H])[H])([H])[H])[H])([H])([H])[H]

>  <h>  (28) 
<NA>

>  <Training>  (28) 
True

>  <Success>  (28) 
True

>  <enamine_searched>  (28) 
False

>  <enamine_id>  (28) 
nan

$$$$

     RDKit          3D

 55 60  0  0  0  0  0  0  0  0999 V2000
  -10.4948   -1.1567  -23.2679 C   0  0  0  0  0  0  0  0  0  0  0  0
   -9.0428   -1.4826  -22.9443 C   0  0  1  0  0  0  0  0  0  0  0  0
   -8.4312   -0.5138  -21.9170 C   0  0  0  0  0  0  0  0  0  0  0  0
   -7.4315   -1.3199  -21.2435 N   0  0  0  0  0  0  0  0  0  0  0  0
   -6.5991   -0.8160  -20.2143 C   0  0  0  0  0  0  0  0  0  0  0  0
   -6.9117   -1.0429  -18.8983 C   0  0  0  0  0  0  0  0  0  0  0  0
   -6.2451   -0.4967  -17.8520 N   0  0  0  0  0  0  0  0  0  0  0  0
   -5.2066    0.2543  -18.1112 C   0  0  0  0  0  0  0  0  0  0  0  0
   -4.7503    0.5422  -19.4274 C   0  0  0  0  0  0  0  0  0  0  0  0
   -3.6102    1.3511  -19.6593 C   0  0  0  0  0  0  0  0  0  0  0  0
   -3.2035    1.6154  -20.9364 C   0  0  0  0  0  0  0  0  0  0  0  0
   -3.9104    1.0783  -22.0338 C   0  0  0  0  0  0  0  0  0  0  0  0
   -5.0157    0.2865  -21.8362 C   0  0  0  0  0  0  0  0  0  0  0  0
   -5.4669    0.0037  -20.5197 C   0  0  0  0  0  0  0  0  0  0  0  0
   -5.5403   -0.1396  -22.6846 H   0  0  0  0  0  0  0  0  0  0  0  0
   -3.5758    1.2985  -23.0421 H   0  0  0  0  0  0  0  0  0  0  0  0
   -2.3427    2.2529  -21.1146 H   0  0  0  0  0  0  0  0  0  0  0  0
   -3.0808    1.7581  -18.8030 H   0  0  0  0  0  0  0  0  0  0  0  0
   -4.6575    0.6640  -17.2609 H   0  0  0  0  0  0  0  0  0  0  0  0
   -7.7574   -1.6746  -18.6402 H   0  0  0  0  0  0  0  0  0  0  0  0
   -7.5407   -2.6695  -21.4995 C   0  0  0  0  0  0  0  0  0  0  0  0
   -6.7324   -3.4979  -21.1378 O   0  0  0  0  0  0  0  0  0  0  0  0
   -8.7914   -2.9132  -22.3570 C   0  0  1  0  0  0  0  0  0  0  0  0
   -9.9652   -3.3883  -21.4741 C   0  0  0  0  0  0  0  0  0  0  0  0
  -11.0925   -3.8736  -22.2541 N   0  0  0  0  0  0  0  0  0  0  0  0
  -12.4501   -3.8176  -21.7245 C   0  0  0  0  0  0  0  0  0  0  0  0
  -13.3121   -2.6967  -22.2372 C   0  0  0  0  0  0  0  0  0  0  0  0
  -13.9921   -2.7351  -23.4627 C   0  0  0  0  0  0  0  0  0  0  0  0
  -14.7374   -1.6370  -23.5823 N   0  0  0  0  0  0  0  0  0  0  0  0
  -14.4648   -0.9813  -22.4738 N   0  0  0  0  0  0  0  0  0  0  0  0
  -13.6270   -1.5591  -21.6251 N   0  0  0  0  0  0  0  0  0  0  0  0
  -14.9477   -0.1247  -22.2259 H   0  0  0  0  0  0  0  0  0  0  0  0
  -13.9711   -3.5245  -24.1963 H   0  0  0  0  0  0  0  0  0  0  0  0
  -12.4472   -3.8552  -20.6328 H   0  0  0  0  0  0  0  0  0  0  0  0
  -12.9290   -4.7122  -22.1280 H   0  0  0  0  0  0  0  0  0  0  0  0
  -10.9459   -4.5711  -23.4199 C   0  0  0  0  0  0  0  0  0  0  0  0
  -11.9099   -4.9799  -24.0607 O   0  0  0  0  0  0  0  0  0  0  0  0
   -9.5491   -4.7782  -23.8797 C   0  0  0  0  0  0  0  0  0  0  0  0
   -9.2976   -5.7560  -24.8376 C   0  0  0  0  0  0  0  0  0  0  0  0
   -8.0412   -5.9018  -25.3914 C   0  0  0  0  0  0  0  0  0  0  0  0
   -7.0470   -5.0396  -24.9446 C   0  0  0  0  0  0  0  0  0  0  0  0
   -5.8317   -5.1259  -25.5047 F   0  0  0  0  0  0  0  0  0  0  0  0
   -7.2510   -4.0949  -23.9610 C   0  0  0  0  0  0  0  0  0  0  0  0
   -8.5231   -3.9623  -23.4015 C   0  0  0  0  0  0  0  0  0  0  0  0
   -6.4188   -3.4856  -23.6246 H   0  0  0  0  0  0  0  0  0  0  0  0
   -7.8155   -6.6483  -26.1487 H   0  0  0  0  0  0  0  0  0  0  0  0
  -10.1126   -6.3955  -25.1471 H   0  0  0  0  0  0  0  0  0  0  0  0
  -10.3063   -2.5312  -20.8896 H   0  0  0  0  0  0  0  0  0  0  0  0
   -9.6313   -4.1804  -20.8006 H   0  0  0  0  0  0  0  0  0  0  0  0
   -9.1925   -0.1454  -21.2074 H   0  0  0  0  0  0  0  0  0  0  0  0
   -7.9678    0.3516  -22.4066 H   0  0  0  0  0  0  0  0  0  0  0  0
   -8.4373   -1.4409  -23.8608 H   0  0  0  0  0  0  0  0  0  0  0  0
  -10.5725   -0.1977  -23.7875 H   0  0  0  0  0  0  0  0  0  0  0  0
  -10.9431   -1.9439  -23.8838 H   0  0  0  0  0  0  0  0  0  0  0  0
  -11.0795   -1.0996  -22.3437 H   0  0  0  0  0  0  0  0  0  0  0  0
  1  2  1  0
  2  3  1  0
  3  4  1  0
  4  5  1  0
  5  6  2  0
  6  7  1  0
  7  8  2  0
  8  9  1  0
  9 10  2  0
 10 11  1  0
 11 12  2  0
 12 13  1  0
 13 14  2  0
 13 15  1  0
 12 16  1  0
 11 17  1  0
 10 18  1  0
  8 19  1  0
  6 20  1  0
  4 21  1  0
 21 22  2  0
 21 23  1  0
 23 24  1  1
 24 25  1  0
 25 26  1  0
 26 27  1  0
 27 28  1  0
 28 29  2  0
 29 30  1  0
 30 31  1  0
 30 32  1  0
 28 33  1  0
 26 34  1  0
 26 35  1  0
 25 36  1  0
 36 37  2  0
 36 38  1  0
 38 39  2  0
 39 40  1  0
 40 41  2  0
 41 42  1  0
 41 43  1  0
 43 44  2  0
 43 45  1  0
 40 46  1  0
 39 47  1  0
 24 48  1  0
 24 49  1  0
  3 50  1  0
  3 51  1  0
  2 52  1  6
  1 53  1  0
  1 54  1  0
  1 55  1  0
 23  2  1  0
 31 27  2  0
 44 38  1  0
 14  5  1  0
 44 23  1  0
 14  9  1  0
M  END
>  <cnnaffinities>  (29) 
[6.82877, 6.75529]

>  <score>  (29) 
6.82877

>  <index>  (29) 
29

>  <Smiles>  (29) 
C([C@]1(C(N(c2c(nc(c3c(c(c(c(c23)[H])[H])[H])[H])[H])[H])C(=O)[C@]21C(N(C(c1c(nn(n1)[H])[H])([H])[H])C(=O)c1c(c(c(F)c(c21)[H])[H])[H])([H])[H])([H])[H])[H])([H])([H])[H]

>  <h>  (29) 
<NA>

>  <Training>  (29) 
True

>  <Success>  (29) 
True

>  <enamine_searched>  (29) 
False

>  <enamine_id>  (29) 
nan

$$$$

     RDKit          3D

 58 63  0  0  0  0  0  0  0  0999 V2000
   -8.3448   -4.3196  -23.5897 C   0  0  0  0  0  0  0  0  0  0  0  0
   -8.5466   -3.3691  -22.4157 C   0  0  1  0  0  0  0  0  0  0  0  0
   -7.2214   -2.6885  -22.0312 C   0  0  0  0  0  0  0  0  0  0  0  0
   -7.6589   -1.5344  -21.2665 N   0  0  0  0  0  0  0  0  0  0  0  0
   -6.8969   -0.8761  -20.2700 C   0  0  0  0  0  0  0  0  0  0  0  0
   -7.2855   -0.9320  -18.9524 C   0  0  0  0  0  0  0  0  0  0  0  0
   -6.5929   -0.3817  -17.9268 N   0  0  0  0  0  0  0  0  0  0  0  0
   -5.4870    0.2576  -18.2186 C   0  0  0  0  0  0  0  0  0  0  0  0
   -4.9882    0.4372  -19.5382 C   0  0  0  0  0  0  0  0  0  0  0  0
   -3.8150    1.1944  -19.8017 C   0  0  0  0  0  0  0  0  0  0  0  0
   -3.4194    1.4213  -21.0895 C   0  0  0  0  0  0  0  0  0  0  0  0
   -4.1553    0.8783  -22.1656 C   0  0  0  0  0  0  0  0  0  0  0  0
   -5.2587    0.0926  -21.9287 C   0  0  0  0  0  0  0  0  0  0  0  0
   -5.7135   -0.1410  -20.6065 C   0  0  0  0  0  0  0  0  0  0  0  0
   -5.8186   -0.3133  -22.7641 H   0  0  0  0  0  0  0  0  0  0  0  0
   -3.8982    1.1497  -23.1830 H   0  0  0  0  0  0  0  0  0  0  0  0
   -2.5491    2.0379  -21.2934 H   0  0  0  0  0  0  0  0  0  0  0  0
   -3.2712    1.6137  -18.9594 H   0  0  0  0  0  0  0  0  0  0  0  0
   -4.9332    0.6941  -17.3879 H   0  0  0  0  0  0  0  0  0  0  0  0
   -8.1952   -1.4609  -18.6771 H   0  0  0  0  0  0  0  0  0  0  0  0
   -8.9783   -1.2005  -21.5236 C   0  0  0  0  0  0  0  0  0  0  0  0
   -9.5617   -0.2700  -21.0147 O   0  0  0  0  0  0  0  0  0  0  0  0
   -9.5365   -2.1920  -22.5864 C   0  0  1  0  0  0  0  0  0  0  0  0
   -9.3912   -1.5153  -23.9719 C   0  0  0  0  0  0  0  0  0  0  0  0
  -10.2352   -0.3423  -24.0084 N   0  0  0  0  0  0  0  0  0  0  0  0
   -9.7663    0.8680  -24.6430 C   0  0  0  0  0  0  0  0  0  0  0  0
   -8.5320    1.5201  -24.0877 C   0  0  0  0  0  0  0  0  0  0  0  0
   -7.4113    1.7747  -24.8251 C   0  0  0  0  0  0  0  0  0  0  0  0
   -6.2643    2.4128  -24.2046 C   0  0  0  0  0  0  0  0  0  0  0  0
   -5.1767    2.6256  -24.7104 O   0  0  0  0  0  0  0  0  0  0  0  0
   -6.5285    2.7979  -22.8792 N   0  0  0  0  0  0  0  0  0  0  0  0
   -7.7304    2.6129  -22.2715 C   0  0  0  0  0  0  0  0  0  0  0  0
   -8.7325    2.0002  -22.8151 N   0  0  0  0  0  0  0  0  0  0  0  0
   -7.8369    3.0574  -21.2866 H   0  0  0  0  0  0  0  0  0  0  0  0
   -5.7343    3.1143  -22.3300 H   0  0  0  0  0  0  0  0  0  0  0  0
   -7.3249    1.5443  -25.8813 H   0  0  0  0  0  0  0  0  0  0  0  0
  -10.5187    1.5991  -24.3673 H   0  0  0  0  0  0  0  0  0  0  0  0
   -9.6932    0.7289  -25.7264 H   0  0  0  0  0  0  0  0  0  0  0  0
  -11.5773   -0.4395  -23.7524 C   0  0  0  0  0  0  0  0  0  0  0  0
  -12.3986    0.3834  -24.1314 O   0  0  0  0  0  0  0  0  0  0  0  0
  -11.9789   -1.6123  -22.9260 C   0  0  0  0  0  0  0  0  0  0  0  0
  -13.3395   -1.7136  -22.6325 C   0  0  0  0  0  0  0  0  0  0  0  0
  -13.7962   -2.6686  -21.7529 C   0  0  0  0  0  0  0  0  0  0  0  0
  -12.8484   -3.5217  -21.1961 C   0  0  0  0  0  0  0  0  0  0  0  0
  -13.2557   -4.3815  -20.2470 F   0  0  0  0  0  0  0  0  0  0  0  0
  -11.5000   -3.4696  -21.5133 C   0  0  0  0  0  0  0  0  0  0  0  0
  -11.0194   -2.4760  -22.3718 C   0  0  0  0  0  0  0  0  0  0  0  0
  -10.8345   -4.1517  -20.9968 H   0  0  0  0  0  0  0  0  0  0  0  0
  -14.8452   -2.7433  -21.4807 H   0  0  0  0  0  0  0  0  0  0  0  0
  -14.0101   -0.9814  -23.0742 H   0  0  0  0  0  0  0  0  0  0  0  0
   -9.6727   -2.2294  -24.7635 H   0  0  0  0  0  0  0  0  0  0  0  0
   -8.3624   -1.1917  -24.1579 H   0  0  0  0  0  0  0  0  0  0  0  0
   -6.5766   -3.3471  -21.4387 H   0  0  0  0  0  0  0  0  0  0  0  0
   -6.6674   -2.3829  -22.9386 H   0  0  0  0  0  0  0  0  0  0  0  0
   -8.8798   -3.9309  -21.5357 H   0  0  0  0  0  0  0  0  0  0  0  0
   -9.2531   -4.8801  -23.8337 H   0  0  0  0  0  0  0  0  0  0  0  0
   -8.0265   -3.7711  -24.4872 H   0  0  0  0  0  0  0  0  0  0  0  0
   -7.5478   -5.0347  -23.3476 H   0  0  0  0  0  0  0  0  0  0  0  0
  1  2  1  0
  2  3  1  0
  3  4  1  0
  4  5  1  0
  5  6  2  0
  6  7  1  0
  7  8  2  0
  8  9  1  0
  9 10  2  0
 10 11  1  0
 11 12  2  0
 12 13  1  0
 13 14  2  0
 13 15  1  0
 12 16  1  0
 11 17  1  0
 10 18  1  0
  8 19  1  0
  6 20  1  0
  4 21  1  0
 21 22  2  0
 21 23  1  0
 23 24  1  6
 24 25  1  0
 25 26  1  0
 26 27  1  0
 27 28  2  0
 28 29  1  0
 29 30  2  0
 29 31  1  0
 31 32  1  0
 32 33  2  0
 32 34  1  0
 31 35  1  0
 28 36  1  0
 26 37  1  0
 26 38  1  0
 25 39  1  0
 39 40  2  0
 39 41  1  0
 41 42  2  0
 42 43  1  0
 43 44  2  0
 44 45  1  0
 44 46  1  0
 46 47  2  0
 46 48  1  0
 43 49  1  0
 42 50  1  0
 24 51  1  0
 24 52  1  0
  3 53  1  0
  3 54  1  0
  2 55  1  1
  1 56  1  0
  1 57  1  0
  1 58  1  0
 23  2  1  0
 33 27  1  0
 47 41  1  0
 14  5  1  0
 47 23  1  0
 14  9  1  0
M  END
>  <cnnaffinities>  (30) 
[6.87876]

>  <score>  (30) 
6.87876

>  <index>  (30) 
30

>  <Smiles>  (30) 
C([C@]1(C(N(c2c(nc(c3c(c(c(c(c23)[H])[H])[H])[H])[H])[H])C(=O)[C@]21C(N(C(c1c(c(=O)n(c(n1)[H])[H])[H])([H])[H])C(=O)c1c(c(c(F)c(c21)[H])[H])[H])([H])[H])([H])[H])[H])([H])([H])[H]

>  <h>  (30) 
<NA>

>  <Training>  (30) 
True

>  <Success>  (30) 
True

>  <enamine_searched>  (30) 
False

>  <enamine_id>  (30) 
nan

$$$$

     RDKit          3D

 66 71  0  0  0  0  0  0  0  0999 V2000
   -7.8265   -6.0304  -26.6721 C   0  0  0  0  0  0  0  0  0  0  0  0
   -8.0033   -4.6154  -26.9489 N   0  0  0  0  0  0  0  0  0  0  0  0
   -7.0774   -3.7071  -26.5681 C   0  0  0  0  0  0  0  0  0  0  0  0
   -6.0388   -4.0083  -25.9884 O   0  0  0  0  0  0  0  0  0  0  0  0
   -7.4422   -2.2425  -26.8186 C   0  0  0  0  0  0  0  0  0  0  0  0
   -8.3610   -1.7657  -25.7917 N   0  0  0  0  0  0  0  0  0  0  0  0
   -7.8372   -1.3127  -24.5089 C   0  0  0  0  0  0  0  0  0  0  0  0
   -8.7454   -1.5814  -23.2645 C   0  0  2  0  0  0  0  0  0  0  0  0
   -8.2425   -0.6081  -22.1817 C   0  0  0  0  0  0  0  0  0  0  0  0
   -8.4622    0.5807  -22.1028 O   0  0  0  0  0  0  0  0  0  0  0  0
   -7.3823   -1.3069  -21.3522 N   0  0  0  0  0  0  0  0  0  0  0  0
   -6.6281   -0.7071  -20.3127 C   0  0  0  0  0  0  0  0  0  0  0  0
   -6.9662   -0.9459  -19.0043 C   0  0  0  0  0  0  0  0  0  0  0  0
   -6.3103   -0.4422  -17.9315 N   0  0  0  0  0  0  0  0  0  0  0  0
   -5.2504    0.2918  -18.1640 C   0  0  0  0  0  0  0  0  0  0  0  0
   -4.7585    0.5865  -19.4663 C   0  0  0  0  0  0  0  0  0  0  0  0
   -3.5914    1.3730  -19.6601 C   0  0  0  0  0  0  0  0  0  0  0  0
   -3.1304    1.6295  -20.9217 C   0  0  0  0  0  0  0  0  0  0  0  0
   -3.8086    1.1061  -22.0454 C   0  0  0  0  0  0  0  0  0  0  0  0
   -4.9397    0.3452  -21.8828 C   0  0  0  0  0  0  0  0  0  0  0  0
   -5.4553    0.0727  -20.5845 C   0  0  0  0  0  0  0  0  0  0  0  0
   -5.4467   -0.0588  -22.7545 H   0  0  0  0  0  0  0  0  0  0  0  0
   -3.4317    1.3132  -23.0429 H   0  0  0  0  0  0  0  0  0  0  0  0
   -2.2471    2.2452  -21.0696 H   0  0  0  0  0  0  0  0  0  0  0  0
   -3.0841    1.7740  -18.7865 H   0  0  0  0  0  0  0  0  0  0  0  0
   -4.7179    0.6838  -17.2973 H   0  0  0  0  0  0  0  0  0  0  0  0
   -7.8328   -1.5675  -18.7819 H   0  0  0  0  0  0  0  0  0  0  0  0
   -7.3113   -2.7312  -21.6216 C   0  0  0  0  0  0  0  0  0  0  0  0
   -8.5193   -2.9493  -22.5424 C   0  0  2  0  0  0  0  0  0  0  0  0
   -8.4670   -4.1477  -23.4919 C   0  0  0  0  0  0  0  0  0  0  0  0
   -8.3771   -5.4452  -22.8411 N   0  0  0  0  0  0  0  0  0  0  0  0
   -7.1789   -5.9512  -22.4108 C   0  0  0  0  0  0  0  0  0  0  0  0
   -5.9632   -5.6662  -23.0621 C   0  0  0  0  0  0  0  0  0  0  0  0
   -4.8197   -6.1377  -22.4507 C   0  0  0  0  0  0  0  0  0  0  0  0
   -4.8372   -6.8440  -21.3117 N   0  0  0  0  0  0  0  0  0  0  0  0
   -6.0456   -7.1052  -20.8347 C   0  0  0  0  0  0  0  0  0  0  0  0
   -7.2219   -6.7495  -21.3340 N   0  0  0  0  0  0  0  0  0  0  0  0
   -6.0790   -7.6808  -19.9107 H   0  0  0  0  0  0  0  0  0  0  0  0
   -3.8309   -5.9325  -22.8692 H   0  0  0  0  0  0  0  0  0  0  0  0
   -5.9376   -5.1096  -24.0007 H   0  0  0  0  0  0  0  0  0  0  0  0
   -9.1425   -5.6590  -22.2166 H   0  0  0  0  0  0  0  0  0  0  0  0
   -9.3843   -4.1372  -24.0958 H   0  0  0  0  0  0  0  0  0  0  0  0
   -7.6199   -4.0365  -24.1653 H   0  0  0  0  0  0  0  0  0  0  0  0
   -9.3921   -3.0874  -21.8839 H   0  0  0  0  0  0  0  0  0  0  0  0
   -7.3814   -3.2789  -20.6803 H   0  0  0  0  0  0  0  0  0  0  0  0
   -6.3480   -2.9984  -22.0855 H   0  0  0  0  0  0  0  0  0  0  0  0
  -10.2015   -1.4129  -23.6347 C   0  0  0  0  0  0  0  0  0  0  0  0
  -11.1770   -1.3329  -22.6265 C   0  0  0  0  0  0  0  0  0  0  0  0
  -12.5243   -1.3360  -22.9658 C   0  0  0  0  0  0  0  0  0  0  0  0
  -13.7708   -1.3287  -21.7465 Cl  0  0  0  0  0  0  0  0  0  0  0  0
  -12.9345   -1.4328  -24.2950 C   0  0  0  0  0  0  0  0  0  0  0  0
  -11.9796   -1.5472  -25.2818 C   0  0  0  0  0  0  0  0  0  0  0  0
  -10.6269   -1.5632  -24.9589 C   0  0  0  0  0  0  0  0  0  0  0  0
   -9.6819   -1.9360  -26.0456 C   0  0  0  0  0  0  0  0  0  0  0  0
  -10.0820   -2.4351  -27.1014 O   0  0  0  0  0  0  0  0  0  0  0  0
  -12.2487   -1.6841  -26.3279 H   0  0  0  0  0  0  0  0  0  0  0  0
  -13.9959   -1.4845  -24.5223 H   0  0  0  0  0  0  0  0  0  0  0  0
  -10.8800   -1.3017  -21.5829 H   0  0  0  0  0  0  0  0  0  0  0  0
   -7.6758   -0.2297  -24.5562 H   0  0  0  0  0  0  0  0  0  0  0  0
   -6.8637   -1.8053  -24.3793 H   0  0  0  0  0  0  0  0  0  0  0  0
   -6.5284   -1.6468  -26.8290 H   0  0  0  0  0  0  0  0  0  0  0  0
   -7.9514   -2.1481  -27.7768 H   0  0  0  0  0  0  0  0  0  0  0  0
   -8.8932   -4.2751  -27.2871 H   0  0  0  0  0  0  0  0  0  0  0  0
   -7.5967   -6.1958  -25.6095 H   0  0  0  0  0  0  0  0  0  0  0  0
   -8.7488   -6.5620  -26.9184 H   0  0  0  0  0  0  0  0  0  0  0  0
   -7.0142   -6.4480  -27.2760 H   0  0  0  0  0  0  0  0  0  0  0  0
  1  2  1  0
  2  3  1  0
  3  4  2  0
  3  5  1  0
  5  6  1  0
  6  7  1  0
  8  7  1  6
  8  9  1  0
  9 10  2  0
  9 11  1  0
 11 12  1  0
 12 13  2  0
 13 14  1  0
 14 15  2  0
 15 16  1  0
 16 17  2  0
 17 18  1  0
 18 19  2  0
 19 20  1  0
 20 21  2  0
 20 22  1  0
 19 23  1  0
 18 24  1  0
 17 25  1  0
 15 26  1  0
 13 27  1  0
 11 28  1  0
 28 29  1  0
 29 30  1  0
 30 31  1  0
 31 32  1  0
 32 33  2  0
 33 34  1  0
 34 35  2  0
 35 36  1  0
 36 37  2  0
 36 38  1  0
 34 39  1  0
 33 40  1  0
 31 41  1  0
 30 42  1  0
 30 43  1  0
 29 44  1  1
 28 45  1  0
 28 46  1  0
  8 47  1  0
 47 48  2  0
 48 49  1  0
 49 50  1  0
 49 51  2  0
 51 52  1  0
 52 53  2  0
 53 54  1  0
 54 55  2  0
 52 56  1  0
 51 57  1  0
 48 58  1  0
  7 59  1  0
  7 60  1  0
  5 61  1  0
  5 62  1  0
  2 63  1  0
  1 64  1  0
  1 65  1  0
  1 66  1  0
 54  6  1  0
 29  8  1  0
 37 32  1  0
 53 47  1  0
 21 12  1  0
 21 16  1  0
M  END
>  <cnnaffinities>  (31) 
[6.43291]

>  <score>  (31) 
6.43291

>  <index>  (31) 
31

>  <Smiles>  (31) 
C(N(C(=O)C(N1C([C@@]2(C(=O)N(c3c(nc(c4c(c(c(c(c34)[H])[H])[H])[H])[H])[H])C([C@@]2(C(N(c2c(c(nc(n2)[H])[H])[H])[H])([H])[H])[H])([H])[H])c2c(c(Cl)c(c(c2C1=O)[H])[H])[H])([H])[H])([H])[H])[H])([H])([H])[H]

>  <h>  (31) 
<NA>

>  <Training>  (31) 
True

>  <Success>  (31) 
True

>  <enamine_searched>  (31) 
False

>  <enamine_id>  (31) 
nan

$$$$

     RDKit          3D

 57 62  0  0  0  0  0  0  0  0999 V2000
   -8.2416   -4.1143  -23.5033 C   0  0  0  0  0  0  0  0  0  0  0  0
   -8.4604   -2.9468  -22.5549 C   0  0  1  0  0  0  0  0  0  0  0  0
   -7.3229   -2.7405  -21.5539 C   0  0  0  0  0  0  0  0  0  0  0  0
   -7.3897   -1.3282  -21.2653 N   0  0  0  0  0  0  0  0  0  0  0  0
   -6.6083   -0.7546  -20.2473 C   0  0  0  0  0  0  0  0  0  0  0  0
   -6.9254   -1.0084  -18.9376 C   0  0  0  0  0  0  0  0  0  0  0  0
   -6.2626   -0.4938  -17.8801 N   0  0  0  0  0  0  0  0  0  0  0  0
   -5.2159    0.2512  -18.1318 C   0  0  0  0  0  0  0  0  0  0  0  0
   -4.7513    0.5463  -19.4445 C   0  0  0  0  0  0  0  0  0  0  0  0
   -3.6034    1.3497  -19.6540 C   0  0  0  0  0  0  0  0  0  0  0  0
   -3.1700    1.6197  -20.9214 C   0  0  0  0  0  0  0  0  0  0  0  0
   -3.8507    1.0849  -22.0376 C   0  0  0  0  0  0  0  0  0  0  0  0
   -4.9629    0.3017  -21.8611 C   0  0  0  0  0  0  0  0  0  0  0  0
   -5.4542    0.0284  -20.5502 C   0  0  0  0  0  0  0  0  0  0  0  0
   -5.4754   -0.0967  -22.7320 H   0  0  0  0  0  0  0  0  0  0  0  0
   -3.4919    1.3022  -23.0388 H   0  0  0  0  0  0  0  0  0  0  0  0
   -2.3026    2.2524  -21.0764 H   0  0  0  0  0  0  0  0  0  0  0  0
   -3.0940    1.7500  -18.7830 H   0  0  0  0  0  0  0  0  0  0  0  0
   -4.6664    0.6491  -17.2785 H   0  0  0  0  0  0  0  0  0  0  0  0
   -7.7776   -1.6452  -18.7080 H   0  0  0  0  0  0  0  0  0  0  0  0
   -8.1397   -0.5857  -22.1442 C   0  0  0  0  0  0  0  0  0  0  0  0
   -8.2801    0.6189  -22.0728 O   0  0  0  0  0  0  0  0  0  0  0  0
   -8.6913   -1.5377  -23.2179 C   0  0  1  0  0  0  0  0  0  0  0  0
   -7.8859   -1.2320  -24.5035 C   0  0  0  0  0  0  0  0  0  0  0  0
   -8.4682   -1.8256  -25.6982 N   0  0  0  0  0  0  0  0  0  0  0  0
   -7.5684   -2.3622  -26.7002 C   0  0  0  0  0  0  0  0  0  0  0  0
   -6.6793   -1.3145  -27.2726 C   0  0  0  0  0  0  0  0  0  0  0  0
   -5.4684   -0.9908  -26.8776 N   0  0  0  0  0  0  0  0  0  0  0  0
   -5.0486   -0.0328  -27.7329 N   0  0  0  0  0  0  0  0  0  0  0  0
   -5.9556    0.2400  -28.6040 N   0  0  0  0  0  0  0  0  0  0  0  0
   -7.0073   -0.5550  -28.3323 N   0  0  0  0  0  0  0  0  0  0  0  0
   -8.3188   -0.4225  -28.9566 C   0  0  0  0  0  0  0  0  0  0  0  0
   -8.2790    0.4327  -29.6346 H   0  0  0  0  0  0  0  0  0  0  0  0
   -9.0529   -0.2401  -28.1653 H   0  0  0  0  0  0  0  0  0  0  0  0
   -8.6030   -1.3435  -29.4854 H   0  0  0  0  0  0  0  0  0  0  0  0
   -6.9656   -3.1578  -26.2514 H   0  0  0  0  0  0  0  0  0  0  0  0
   -8.1905   -2.8175  -27.4716 H   0  0  0  0  0  0  0  0  0  0  0  0
   -9.8071   -1.8293  -25.9561 C   0  0  0  0  0  0  0  0  0  0  0  0
  -10.2772   -2.1275  -27.0498 O   0  0  0  0  0  0  0  0  0  0  0  0
  -10.6752   -1.4968  -24.7964 C   0  0  0  0  0  0  0  0  0  0  0  0
  -12.0418   -1.4364  -25.0295 C   0  0  0  0  0  0  0  0  0  0  0  0
  -12.9235   -1.1621  -24.0112 C   0  0  0  0  0  0  0  0  0  0  0  0
  -12.4021   -1.0221  -22.7346 C   0  0  0  0  0  0  0  0  0  0  0  0
  -13.2789   -0.8281  -21.7443 F   0  0  0  0  0  0  0  0  0  0  0  0
  -11.0474   -1.0882  -22.4614 C   0  0  0  0  0  0  0  0  0  0  0  0
  -10.1573   -1.3244  -23.5123 C   0  0  0  0  0  0  0  0  0  0  0  0
  -10.6701   -0.9414  -21.4563 H   0  0  0  0  0  0  0  0  0  0  0  0
  -13.9862   -1.0320  -24.1833 H   0  0  0  0  0  0  0  0  0  0  0  0
  -12.3694   -1.6243  -26.0386 H   0  0  0  0  0  0  0  0  0  0  0  0
   -7.8016   -0.1373  -24.5943 H   0  0  0  0  0  0  0  0  0  0  0  0
   -6.8586   -1.5965  -24.4155 H   0  0  0  0  0  0  0  0  0  0  0  0
   -6.3433   -3.0364  -21.9617 H   0  0  0  0  0  0  0  0  0  0  0  0
   -7.4564   -3.2782  -20.6179 H   0  0  0  0  0  0  0  0  0  0  0  0
   -9.3721   -3.1371  -21.9696 H   0  0  0  0  0  0  0  0  0  0  0  0
   -8.1703   -5.0524  -22.9437 H   0  0  0  0  0  0  0  0  0  0  0  0
   -7.3098   -3.9790  -24.0633 H   0  0  0  0  0  0  0  0  0  0  0  0
   -9.0641   -4.1891  -24.2206 H   0  0  0  0  0  0  0  0  0  0  0  0
  1  2  1  0
  2  3  1  0
  3  4  1  0
  4  5  1  0
  5  6  2  0
  6  7  1  0
  7  8  2  0
  8  9  1  0
  9 10  2  0
 10 11  1  0
 11 12  2  0
 12 13  1  0
 13 14  2  0
 13 15  1  0
 12 16  1  0
 11 17  1  0
 10 18  1  0
  8 19  1  0
  6 20  1  0
  4 21  1  0
 21 22  2  0
 21 23  1  0
 23 24  1  6
 24 25  1  0
 25 26  1  0
 26 27  1  0
 27 28  2  0
 28 29  1  0
 29 30  2  0
 30 31  1  0
 31 32  1  0
 32 33  1  0
 32 34  1  0
 32 35  1  0
 26 36  1  0
 26 37  1  0
 25 38  1  0
 38 39  2  0
 38 40  1  0
 40 41  2  0
 41 42  1  0
 42 43  2  0
 43 44  1  0
 43 45  1  0
 45 46  2  0
 45 47  1  0
 42 48  1  0
 41 49  1  0
 24 50  1  0
 24 51  1  0
  3 52  1  0
  3 53  1  0
  2 54  1  1
  1 55  1  0
  1 56  1  0
  1 57  1  0
 23  2  1  0
 31 27  1  0
 46 40  1  0
 14  5  1  0
 46 23  1  0
 14  9  1  0
M  END
>  <cnnaffinities>  (32) 
[6.17804, 6.73214, 6.26574, 6.32533]

>  <score>  (32) 
6.17804

>  <index>  (32) 
32

>  <Smiles>  (32) 
C([C@]1(C(N(c2c(nc(c3c(c(c(c(c23)[H])[H])[H])[H])[H])[H])C(=O)[C@]21C(N(C(c1nnnn1C([H])([H])[H])([H])[H])C(=O)c1c(c(c(F)c(c21)[H])[H])[H])([H])[H])([H])[H])[H])([H])([H])[H]

>  <h>  (32) 
<NA>

>  <Training>  (32) 
True

>  <Success>  (32) 
True

>  <enamine_searched>  (32) 
False

>  <enamine_id>  (32) 
nan

$$$$

     RDKit          3D

 66 70  0  0  0  0  0  0  0  0999 V2000
   -7.7271   -0.2496  -29.8105 C   0  0  0  0  0  0  0  0  0  0  0  0
   -7.9668   -1.2756  -28.8232 N   0  0  0  0  0  0  0  0  0  0  0  0
   -7.1533   -1.3530  -27.7339 C   0  0  0  0  0  0  0  0  0  0  0  0
   -6.1911   -0.6293  -27.5413 O   0  0  0  0  0  0  0  0  0  0  0  0
   -7.5407   -2.4463  -26.7354 C   0  0  0  0  0  0  0  0  0  0  0  0
   -8.4307   -1.9343  -25.7055 N   0  0  0  0  0  0  0  0  0  0  0  0
   -7.9044   -1.2470  -24.5357 C   0  0  0  0  0  0  0  0  0  0  0  0
   -8.7387   -1.5515  -23.2650 C   0  0  2  0  0  0  0  0  0  0  0  0
   -8.2442   -0.5802  -22.1800 C   0  0  0  0  0  0  0  0  0  0  0  0
   -8.4773    0.6054  -22.0958 O   0  0  0  0  0  0  0  0  0  0  0  0
   -7.4181   -1.2798  -21.3188 N   0  0  0  0  0  0  0  0  0  0  0  0
   -6.6418   -0.6844  -20.2898 C   0  0  0  0  0  0  0  0  0  0  0  0
   -6.9564   -0.9479  -18.9819 C   0  0  0  0  0  0  0  0  0  0  0  0
   -6.2857   -0.4573  -17.9137 N   0  0  0  0  0  0  0  0  0  0  0  0
   -5.2323    0.2837  -18.1520 C   0  0  0  0  0  0  0  0  0  0  0  0
   -4.7523    0.5905  -19.4553 C   0  0  0  0  0  0  0  0  0  0  0  0
   -3.5873    1.3781  -19.6563 C   0  0  0  0  0  0  0  0  0  0  0  0
   -3.1363    1.6344  -20.9209 C   0  0  0  0  0  0  0  0  0  0  0  0
   -3.8180    1.1042  -22.0389 C   0  0  0  0  0  0  0  0  0  0  0  0
   -4.9474    0.3428  -21.8692 C   0  0  0  0  0  0  0  0  0  0  0  0
   -5.4607    0.0825  -20.5688 C   0  0  0  0  0  0  0  0  0  0  0  0
   -5.4541   -0.0732  -22.7346 H   0  0  0  0  0  0  0  0  0  0  0  0
   -3.4482    1.3108  -23.0383 H   0  0  0  0  0  0  0  0  0  0  0  0
   -2.2577    2.2544  -21.0753 H   0  0  0  0  0  0  0  0  0  0  0  0
   -3.0746    1.7787  -18.7861 H   0  0  0  0  0  0  0  0  0  0  0  0
   -4.6993    0.6684  -17.2840 H   0  0  0  0  0  0  0  0  0  0  0  0
   -7.8132   -1.5826  -18.7578 H   0  0  0  0  0  0  0  0  0  0  0  0
   -7.3002   -2.6950  -21.6129 C   0  0  0  0  0  0  0  0  0  0  0  0
   -8.4378   -2.9412  -22.6097 C   0  0  2  0  0  0  0  0  0  0  0  0
   -8.1769   -4.0817  -23.5859 C   0  0  0  0  0  0  0  0  0  0  0  0
   -7.7701   -5.2371  -22.8827 O   0  0  0  0  0  0  0  0  0  0  0  0
   -7.4706   -6.3179  -23.7561 C   0  0  0  0  0  0  0  0  0  0  0  0
   -6.5478   -7.2548  -22.9968 C   0  0  0  0  0  0  0  0  0  0  0  0
   -5.5728   -6.7884  -22.8263 H   0  0  0  0  0  0  0  0  0  0  0  0
   -6.9954   -7.5116  -22.0305 H   0  0  0  0  0  0  0  0  0  0  0  0
   -6.3747   -8.1725  -23.5648 H   0  0  0  0  0  0  0  0  0  0  0  0
   -8.7434   -7.0117  -24.2365 C   0  0  0  0  0  0  0  0  0  0  0  0
   -9.0738   -7.7644  -23.5089 H   0  0  0  0  0  0  0  0  0  0  0  0
   -8.5658   -7.5080  -25.1942 H   0  0  0  0  0  0  0  0  0  0  0  0
   -9.5307   -6.2704  -24.3991 H   0  0  0  0  0  0  0  0  0  0  0  0
   -6.9272   -5.9235  -24.6327 H   0  0  0  0  0  0  0  0  0  0  0  0
   -9.0951   -4.2643  -24.1632 H   0  0  0  0  0  0  0  0  0  0  0  0
   -7.4025   -3.8093  -24.3146 H   0  0  0  0  0  0  0  0  0  0  0  0
   -9.3313   -3.2147  -22.0320 H   0  0  0  0  0  0  0  0  0  0  0  0
   -7.4322   -3.2764  -20.6990 H   0  0  0  0  0  0  0  0  0  0  0  0
   -6.3068   -2.9408  -22.0210 H   0  0  0  0  0  0  0  0  0  0  0  0
  -10.2100   -1.3942  -23.5981 C   0  0  0  0  0  0  0  0  0  0  0  0
  -11.1697   -1.3193  -22.5779 C   0  0  0  0  0  0  0  0  0  0  0  0
  -12.5172   -1.3110  -22.9069 C   0  0  0  0  0  0  0  0  0  0  0  0
  -13.7422   -1.3407  -21.6778 Cl  0  0  0  0  0  0  0  0  0  0  0  0
  -12.9574   -1.3942  -24.2259 C   0  0  0  0  0  0  0  0  0  0  0  0
  -12.0141   -1.4856  -25.2227 C   0  0  0  0  0  0  0  0  0  0  0  0
  -10.6616   -1.4959  -24.9186 C   0  0  0  0  0  0  0  0  0  0  0  0
   -9.7389   -1.7957  -26.0452 C   0  0  0  0  0  0  0  0  0  0  0  0
  -10.1456   -1.9687  -27.1955 O   0  0  0  0  0  0  0  0  0  0  0  0
  -12.2743   -1.6159  -26.2649 H   0  0  0  0  0  0  0  0  0  0  0  0
  -14.0230   -1.4460  -24.4239 H   0  0  0  0  0  0  0  0  0  0  0  0
  -10.8635   -1.3207  -21.5341 H   0  0  0  0  0  0  0  0  0  0  0  0
   -6.8583   -1.5465  -24.3844 H   0  0  0  0  0  0  0  0  0  0  0  0
   -7.9299   -0.1579  -24.6860 H   0  0  0  0  0  0  0  0  0  0  0  0
   -8.0640   -3.2603  -27.2478 H   0  0  0  0  0  0  0  0  0  0  0  0
   -6.6235   -2.8301  -26.2752 H   0  0  0  0  0  0  0  0  0  0  0  0
   -8.9194   -1.5996  -28.6849 H   0  0  0  0  0  0  0  0  0  0  0  0
   -6.6936   -0.3214  -30.1549 H   0  0  0  0  0  0  0  0  0  0  0  0
   -7.8815    0.7584  -29.4083 H   0  0  0  0  0  0  0  0  0  0  0  0
   -8.3959   -0.4144  -30.6583 H   0  0  0  0  0  0  0  0  0  0  0  0
  1  2  1  0
  2  3  1  0
  3  4  2  0
  3  5  1  0
  5  6  1  0
  6  7  1  0
  8  7  1  6
  8  9  1  0
  9 10  2  0
  9 11  1  0
 11 12  1  0
 12 13  2  0
 13 14  1  0
 14 15  2  0
 15 16  1  0
 16 17  2  0
 17 18  1  0
 18 19  2  0
 19 20  1  0
 20 21  2  0
 20 22  1  0
 19 23  1  0
 18 24  1  0
 17 25  1  0
 15 26  1  0
 13 27  1  0
 11 28  1  0
 28 29  1  0
 29 30  1  0
 30 31  1  0
 31 32  1  0
 32 33  1  0
 33 34  1  0
 33 35  1  0
 33 36  1  0
 32 37  1  0
 37 38  1  0
 37 39  1  0
 37 40  1  0
 32 41  1  0
 30 42  1  0
 30 43  1  0
 29 44  1  1
 28 45  1  0
 28 46  1  0
  8 47  1  0
 47 48  2  0
 48 49  1  0
 49 50  1  0
 49 51  2  0
 51 52  1  0
 52 53  2  0
 53 54  1  0
 54 55  2  0
 52 56  1  0
 51 57  1  0
 48 58  1  0
  7 59  1  0
  7 60  1  0
  5 61  1  0
  5 62  1  0
  2 63  1  0
  1 64  1  0
  1 65  1  0
  1 66  1  0
 54  6  1  0
 29  8  1  0
 53 47  1  0
 21 12  1  0
 21 16  1  0
M  END
>  <cnnaffinities>  (33) 
[6.49256, 6.53437, 6.54005, 6.61845, 6.61224]

>  <score>  (33) 
6.49256

>  <index>  (33) 
34

>  <Smiles>  (33) 
C(N(C(=O)C(N1C([C@@]2(C(=O)N(c3c(nc(c4c(c(c(c(c34)[H])[H])[H])[H])[H])[H])C([C@@]2(C(OC(C([H])([H])[H])(C([H])([H])[H])[H])([H])[H])[H])([H])[H])c2c(c(Cl)c(c(c2C1=O)[H])[H])[H])([H])[H])([H])[H])[H])([H])([H])[H]

>  <h>  (33) 
<NA>

>  <Training>  (33) 
True

>  <Success>  (33) 
True

>  <enamine_searched>  (33) 
False

>  <enamine_id>  (33) 
nan

$$$$

     RDKit          3D

 40 42  0  0  0  0  0  0  0  0999 V2000
   -9.1560   -1.9185  -22.7465 O   0  0  0  0  0  0  0  0  0  0  0  0
   -8.3026   -1.1083  -22.4061 C   0  0  0  0  0  0  0  0  0  0  0  0
   -6.9668   -1.5848  -21.8511 C   0  0  0  0  0  0  0  0  0  0  0  0
   -6.3940   -0.8002  -20.6745 C   0  0  0  0  0  0  0  0  0  0  0  0
   -7.0061   -0.8743  -19.4449 C   0  0  0  0  0  0  0  0  0  0  0  0
   -6.5382   -0.3264  -18.2940 N   0  0  0  0  0  0  0  0  0  0  0  0
   -5.4221    0.3543  -18.3711 C   0  0  0  0  0  0  0  0  0  0  0  0
   -4.7053    0.5757  -19.5757 C   0  0  0  0  0  0  0  0  0  0  0  0
   -3.5573    1.4072  -19.6194 C   0  0  0  0  0  0  0  0  0  0  0  0
   -2.9397    1.6818  -20.8079 C   0  0  0  0  0  0  0  0  0  0  0  0
   -3.4163    1.0940  -21.9989 C   0  0  0  0  0  0  0  0  0  0  0  0
   -4.4996    0.2449  -21.9734 C   0  0  0  0  0  0  0  0  0  0  0  0
   -5.1948   -0.0200  -20.7647 C   0  0  0  0  0  0  0  0  0  0  0  0
   -4.8439   -0.1940  -22.9072 H   0  0  0  0  0  0  0  0  0  0  0  0
   -2.9304    1.3263  -22.9416 H   0  0  0  0  0  0  0  0  0  0  0  0
   -2.0932    2.3618  -20.8461 H   0  0  0  0  0  0  0  0  0  0  0  0
   -3.2033    1.8452  -18.6898 H   0  0  0  0  0  0  0  0  0  0  0  0
   -5.0351    0.7858  -17.4475 H   0  0  0  0  0  0  0  0  0  0  0  0
   -7.9384   -1.4314  -19.3336 H   0  0  0  0  0  0  0  0  0  0  0  0
   -6.2399   -1.6426  -22.6692 H   0  0  0  0  0  0  0  0  0  0  0  0
   -7.1558   -2.6217  -21.5470 H   0  0  0  0  0  0  0  0  0  0  0  0
   -8.4204    0.2611  -22.4698 N   0  0  0  0  0  0  0  0  0  0  0  0
   -9.6031    1.0436  -22.0383 C   0  0  0  0  0  0  0  0  0  0  0  0
   -9.6233    0.8858  -21.8539 C   0  0  0  0  0  0  0  0  0  0  0  0
   -9.2909    2.8404  -23.7244 C   0  0  0  0  0  0  0  0  0  0  0  0
   -8.5218    5.3744  -22.8180 C   0  0  0  0  0  0  0  0  0  0  0  0
   -7.9930    4.8875  -21.7147 F   0  0  0  0  0  0  0  0  0  0  0  0
   -7.5849    5.6539  -23.7062 F   0  0  0  0  0  0  0  0  0  0  0  0
   -9.2399    6.4407  -22.5465 F   0  0  0  0  0  0  0  0  0  0  0  0
   -8.0300    2.4133  -23.7525 C   0  0  0  0  0  0  0  0  0  0  0  0
   -7.4615    1.1228  -23.2204 C   0  0  0  0  0  0  0  0  0  0  0  0
   -7.0059    0.5303  -24.0212 H   0  0  0  0  0  0  0  0  0  0  0  0
   -6.6518    1.4157  -22.5384 H   0  0  0  0  0  0  0  0  0  0  0  0
   -7.2500    3.0784  -24.1236 H   0  0  0  0  0  0  0  0  0  0  0  0
  -10.1132    2.1504  -23.6883 H   0  0  0  0  0  0  0  0  0  0  0  0
   -9.4734    3.9194  -23.7609 H   0  0  0  0  0  0  0  0  0  0  0  0
   -8.8889    1.8791  -21.5102 H   0  0  0  0  0  0  0  0  0  0  0  0
  -10.5094    1.8085  -21.7860 H   0  0  0  0  0  0  0  0  0  0  0  0
  -10.3681    0.5305  -22.8306 H   0  0  0  0  0  0  0  0  0  0  0  0
   -9.9170    0.0462  -20.5546 H   0  0  0  0  0  0  0  0  0  0  0  0
  1  2  2  0
  2  3  1  0
  3  4  1  0
  4  5  2  0
  5  6  1  0
  6  7  2  0
  7  8  1  0
  8  9  2  0
  9 10  1  0
 10 11  2  0
 11 12  1  0
 12 13  2  0
 12 14  1  0
 11 15  1  0
 10 16  1  0
  9 17  1  0
  7 18  1  0
  5 19  1  0
  3 20  1  0
  3 21  1  0
  2 22  1  0
 22 23  1  0
 23 24  1  0
 24 25  1  0
 25 26  1  0
 26 27  1  0
 26 28  1  0
 26 29  1  0
 25 30  1  0
 30 31  1  0
 31 32  1  0
 31 33  1  0
 30 34  1  0
 30 35  1  0
 25 36  1  0
 24 37  1  0
 24 38  1  0
 23 39  1  0
 23 40  1  0
 13  4  1  0
 31 22  1  0
 13  8  1  0
M  END
>  <cnnaffinities>  (34) 
[4.81597, 4.83094]

>  <score>  (34) 
4.81597

>  <index>  (34) 
35

>  <Smiles>  (34) 
O=C(C(c1c(nc(c2c(c(c(c(c12)[H])[H])[H])[H])[H])[H])([H])[H])N1C(C(C(C(F)(F)F)(C(C1([H])[H])([H])[H])[H])([H])[H])([H])[H]

>  <h>  (34) 
<NA>

>  <Training>  (34) 
True

>  <Success>  (34) 
True

>  <enamine_searched>  (34) 
False

>  <enamine_id>  (34) 
nan

$$$$

     RDKit          3D

 47 50  0  0  0  0  0  0  0  0999 V2000
   -8.6895    0.6148  -21.3232 O   0  0  0  0  0  0  0  0  0  0  0  0
   -8.4194   -0.4165  -21.9176 C   0  0  0  0  0  0  0  0  0  0  0  0
   -7.4214   -1.4238  -21.2958 C   0  0  0  0  0  0  0  0  0  0  0  0
   -6.5821   -0.8211  -20.1980 C   0  0  0  0  0  0  0  0  0  0  0  0
   -6.8882   -1.0221  -18.8790 C   0  0  0  0  0  0  0  0  0  0  0  0
   -6.2108   -0.4983  -17.8248 N   0  0  0  0  0  0  0  0  0  0  0  0
   -5.1615    0.2351  -18.0831 C   0  0  0  0  0  0  0  0  0  0  0  0
   -4.7193    0.5355  -19.3969 C   0  0  0  0  0  0  0  0  0  0  0  0
   -3.5922    1.3593  -19.6301 C   0  0  0  0  0  0  0  0  0  0  0  0
   -3.2049    1.6514  -20.9039 C   0  0  0  0  0  0  0  0  0  0  0  0
   -3.9335    1.1226  -21.9973 C   0  0  0  0  0  0  0  0  0  0  0  0
   -5.0287    0.3205  -21.8049 C   0  0  0  0  0  0  0  0  0  0  0  0
   -5.4534    0.0044  -20.4892 C   0  0  0  0  0  0  0  0  0  0  0  0
   -5.5723   -0.0715  -22.6677 H   0  0  0  0  0  0  0  0  0  0  0  0
   -3.6201    1.3649  -23.0054 H   0  0  0  0  0  0  0  0  0  0  0  0
   -2.3522    2.2990  -21.0894 H   0  0  0  0  0  0  0  0  0  0  0  0
   -3.0642    1.7689  -18.7707 H   0  0  0  0  0  0  0  0  0  0  0  0
   -4.6078    0.6253  -17.2253 H   0  0  0  0  0  0  0  0  0  0  0  0
   -7.7271   -1.6530  -18.5868 H   0  0  0  0  0  0  0  0  0  0  0  0
   -6.7886   -1.8935  -22.0573 H   0  0  0  0  0  0  0  0  0  0  0  0
   -8.0313   -2.2291  -20.8643 H   0  0  0  0  0  0  0  0  0  0  0  0
   -9.0583   -0.7447  -23.0975 N   0  0  0  0  0  0  0  0  0  0  0  0
  -10.0999    0.2025  -23.5149 C   0  0  0  0  0  0  0  0  0  0  0  0
  -11.1021   -0.4410  -24.4655 C   0  0  0  0  0  0  0  0  0  0  0  0
  -10.3499   -1.0265  -25.6681 C   0  0  0  0  0  0  0  0  0  0  0  0
   -9.5172   -2.1799  -25.1199 C   0  0  0  0  0  0  0  0  0  0  0  0
   -8.5107   -1.7328  -24.0362 C   0  0  1  0  0  0  0  0  0  0  0  0
   -7.1781   -1.3036  -24.6554 C   0  0  0  0  0  0  0  0  0  0  0  0
   -6.1548   -2.2448  -24.7875 C   0  0  0  0  0  0  0  0  0  0  0  0
   -4.9324   -1.9040  -25.3585 C   0  0  0  0  0  0  0  0  0  0  0  0
   -4.7200   -0.6099  -25.8251 C   0  0  0  0  0  0  0  0  0  0  0  0
   -5.7469    0.3258  -25.7269 C   0  0  0  0  0  0  0  0  0  0  0  0
   -6.9663   -0.0188  -25.1512 C   0  0  0  0  0  0  0  0  0  0  0  0
   -7.7578    0.7248  -25.1020 H   0  0  0  0  0  0  0  0  0  0  0  0
   -5.6037    1.3372  -26.0944 H   0  0  0  0  0  0  0  0  0  0  0  0
   -3.7629   -0.3285  -26.2565 H   0  0  0  0  0  0  0  0  0  0  0  0
   -4.1425   -2.6458  -25.4262 H   0  0  0  0  0  0  0  0  0  0  0  0
   -6.3118   -3.2630  -24.4359 H   0  0  0  0  0  0  0  0  0  0  0  0
   -8.3018   -2.6249  -23.4362 H   0  0  0  0  0  0  0  0  0  0  0  0
   -8.9593   -2.7033  -25.9074 H   0  0  0  0  0  0  0  0  0  0  0  0
  -10.2134   -2.9047  -24.6861 H   0  0  0  0  0  0  0  0  0  0  0  0
   -9.6524   -0.3234  -26.1468 H   0  0  0  0  0  0  0  0  0  0  0  0
  -11.0369   -1.3706  -26.4484 H   0  0  0  0  0  0  0  0  0  0  0  0
  -11.9154    0.2567  -24.6935 H   0  0  0  0  0  0  0  0  0  0  0  0
  -11.5895   -1.2810  -23.9427 H   0  0  0  0  0  0  0  0  0  0  0  0
  -10.5945    0.5387  -22.6062 H   0  0  0  0  0  0  0  0  0  0  0  0
   -9.6432    1.1120  -23.9412 H   0  0  0  0  0  0  0  0  0  0  0  0
  1  2  2  0
  2  3  1  0
  3  4  1  0
  4  5  2  0
  5  6  1  0
  6  7  2  0
  7  8  1  0
  8  9  2  0
  9 10  1  0
 10 11  2  0
 11 12  1  0
 12 13  2  0
 12 14  1  0
 11 15  1  0
 10 16  1  0
  9 17  1  0
  7 18  1  0
  5 19  1  0
  3 20  1  0
  3 21  1  0
  2 22  1  0
 22 23  1  0
 23 24  1  0
 24 25  1  0
 25 26  1  0
 26 27  1  0
 27 28  1  0
 28 29  2  0
 29 30  1  0
 30 31  2  0
 31 32  1  0
 32 33  2  0
 33 34  1  0
 32 35  1  0
 31 36  1  0
 30 37  1  0
 29 38  1  0
 27 39  1  1
 26 40  1  0
 26 41  1  0
 25 42  1  0
 25 43  1  0
 24 44  1  0
 24 45  1  0
 23 46  1  0
 23 47  1  0
 13  4  1  0
 27 22  1  0
 33 28  1  0
 13  8  1  0
M  END
>  <cnnaffinities>  (35) 
[5.07556, 5.0762, 5.69221, 5.68892, 5.56949, 5.56828]

>  <score>  (35) 
5.07556

>  <index>  (35) 
36

>  <Smiles>  (35) 
O=C(C(c1c(nc(c2c(c(c(c(c12)[H])[H])[H])[H])[H])[H])([H])[H])N1C(C(C(C([C@]1(c1c(c(c(c(c1[H])[H])[H])[H])[H])[H])([H])[H])([H])[H])([H])[H])([H])[H]

>  <h>  (35) 
<NA>

>  <Training>  (35) 
True

>  <Success>  (35) 
True

>  <enamine_searched>  (35) 
False

>  <enamine_id>  (35) 
nan

$$$$

     RDKit          3D

 56 60  0  0  0  0  0  0  0  0999 V2000
  -14.4923   -1.5582  -23.7449 C   0  0  0  0  0  0  0  0  0  0  0  0
  -13.7558   -2.7116  -23.2764 N   0  0  0  0  0  0  0  0  0  0  0  0
  -13.3557   -2.7281  -21.9807 C   0  0  0  0  0  0  0  0  0  0  0  0
  -13.7165   -1.8929  -21.1667 O   0  0  0  0  0  0  0  0  0  0  0  0
  -12.4580   -3.9071  -21.6566 C   0  0  0  0  0  0  0  0  0  0  0  0
  -11.1355   -3.8496  -22.2544 N   0  0  0  0  0  0  0  0  0  0  0  0
  -10.0047   -3.3713  -21.4667 C   0  0  0  0  0  0  0  0  0  0  0  0
   -8.8107   -2.9160  -22.3407 C   0  0  2  0  0  0  0  0  0  0  0  0
   -7.5542   -2.6754  -21.4823 C   0  0  0  0  0  0  0  0  0  0  0  0
   -6.7422   -3.5042  -21.1296 O   0  0  0  0  0  0  0  0  0  0  0  0
   -7.4361   -1.3257  -21.2323 N   0  0  0  0  0  0  0  0  0  0  0  0
   -6.5996   -0.8197  -20.2086 C   0  0  0  0  0  0  0  0  0  0  0  0
   -6.9115   -1.0475  -18.8943 C   0  0  0  0  0  0  0  0  0  0  0  0
   -6.2458   -0.4993  -17.8487 N   0  0  0  0  0  0  0  0  0  0  0  0
   -5.2047    0.2487  -18.1093 C   0  0  0  0  0  0  0  0  0  0  0  0
   -4.7495    0.5360  -19.4263 C   0  0  0  0  0  0  0  0  0  0  0  0
   -3.6113    1.3474  -19.6593 C   0  0  0  0  0  0  0  0  0  0  0  0
   -3.2038    1.6130  -20.9360 C   0  0  0  0  0  0  0  0  0  0  0  0
   -3.9095    1.0745  -22.0340 C   0  0  0  0  0  0  0  0  0  0  0  0
   -5.0142    0.2820  -21.8359 C   0  0  0  0  0  0  0  0  0  0  0  0
   -5.4666   -0.0022  -20.5191 C   0  0  0  0  0  0  0  0  0  0  0  0
   -5.5397   -0.1420  -22.6858 H   0  0  0  0  0  0  0  0  0  0  0  0
   -3.5766    1.2995  -23.0426 H   0  0  0  0  0  0  0  0  0  0  0  0
   -2.3459    2.2544  -21.1126 H   0  0  0  0  0  0  0  0  0  0  0  0
   -3.0866    1.7561  -18.8008 H   0  0  0  0  0  0  0  0  0  0  0  0
   -4.6527    0.6598  -17.2602 H   0  0  0  0  0  0  0  0  0  0  0  0
   -7.7545   -1.6844  -18.6363 H   0  0  0  0  0  0  0  0  0  0  0  0
   -8.4264   -0.5163  -21.9118 C   0  0  0  0  0  0  0  0  0  0  0  0
   -9.0416   -1.4838  -22.9342 C   0  0  2  0  0  0  0  0  0  0  0  0
  -10.4878   -1.1460  -23.2706 C   0  0  0  0  0  0  0  0  0  0  0  0
  -10.9108   -1.9152  -23.9232 H   0  0  0  0  0  0  0  0  0  0  0  0
  -10.5591   -0.1760  -23.7695 H   0  0  0  0  0  0  0  0  0  0  0  0
  -11.0954   -1.1107  -22.3579 H   0  0  0  0  0  0  0  0  0  0  0  0
   -8.4317   -1.4480  -23.8484 H   0  0  0  0  0  0  0  0  0  0  0  0
   -9.1836   -0.1418  -21.2050 H   0  0  0  0  0  0  0  0  0  0  0  0
   -7.9616    0.3455  -22.4050 H   0  0  0  0  0  0  0  0  0  0  0  0
   -8.5492   -3.9687  -23.3872 C   0  0  0  0  0  0  0  0  0  0  0  0
   -7.2780   -4.1111  -23.9471 C   0  0  0  0  0  0  0  0  0  0  0  0
   -7.0446   -5.0485  -24.9357 C   0  0  0  0  0  0  0  0  0  0  0  0
   -8.0677   -5.8869  -25.3720 C   0  0  0  0  0  0  0  0  0  0  0  0
   -9.3331   -5.7481  -24.8319 C   0  0  0  0  0  0  0  0  0  0  0  0
   -9.5848   -4.7661  -23.8769 C   0  0  0  0  0  0  0  0  0  0  0  0
  -10.9824   -4.5389  -23.4170 C   0  0  0  0  0  0  0  0  0  0  0  0
  -11.9592   -4.9259  -24.0679 O   0  0  0  0  0  0  0  0  0  0  0  0
  -10.1473   -6.3914  -25.1399 H   0  0  0  0  0  0  0  0  0  0  0  0
   -7.8729   -6.6287  -26.1409 H   0  0  0  0  0  0  0  0  0  0  0  0
   -6.0644   -5.1039  -25.3910 H   0  0  0  0  0  0  0  0  0  0  0  0
   -6.4630   -3.4882  -23.5946 H   0  0  0  0  0  0  0  0  0  0  0  0
  -10.3431   -2.5117  -20.8781 H   0  0  0  0  0  0  0  0  0  0  0  0
   -9.6946   -4.1780  -20.7993 H   0  0  0  0  0  0  0  0  0  0  0  0
  -12.4235   -4.0533  -20.5790 H   0  0  0  0  0  0  0  0  0  0  0  0
  -12.9483   -4.7461  -22.1481 H   0  0  0  0  0  0  0  0  0  0  0  0
  -13.4773   -3.4708  -23.8931 H   0  0  0  0  0  0  0  0  0  0  0  0
  -13.8699   -0.6522  -23.7388 H   0  0  0  0  0  0  0  0  0  0  0  0
  -15.3441   -1.3713  -23.0849 H   0  0  0  0  0  0  0  0  0  0  0  0
  -14.8515   -1.7229  -24.7620 H   0  0  0  0  0  0  0  0  0  0  0  0
  1  2  1  0
  2  3  1  0
  3  4  2  0
  3  5  1  0
  5  6  1  0
  6  7  1  0
  8  7  1  1
  8  9  1  0
  9 10  2  0
  9 11  1  0
 11 12  1  0
 12 13  2  0
 13 14  1  0
 14 15  2  0
 15 16  1  0
 16 17  2  0
 17 18  1  0
 18 19  2  0
 19 20  1  0
 20 21  2  0
 20 22  1  0
 19 23  1  0
 18 24  1  0
 17 25  1  0
 15 26  1  0
 13 27  1  0
 11 28  1  0
 28 29  1  0
 29 30  1  0
 30 31  1  0
 30 32  1  0
 30 33  1  0
 29 34  1  6
 28 35  1  0
 28 36  1  0
  8 37  1  0
 37 38  2  0
 38 39  1  0
 39 40  2  0
 40 41  1  0
 41 42  2  0
 42 43  1  0
 43 44  2  0
 41 45  1  0
 40 46  1  0
 39 47  1  0
 38 48  1  0
  7 49  1  0
  7 50  1  0
  5 51  1  0
  5 52  1  0
  2 53  1  0
  1 54  1  0
  1 55  1  0
  1 56  1  0
 43  6  1  0
 29  8  1  0
 42 37  1  0
 21 12  1  0
 21 16  1  0
M  END
>  <cnnaffinities>  (36) 
[6.35423, 5.98318]

>  <score>  (36) 
6.35423

>  <index>  (36) 
37

>  <Smiles>  (36) 
C(N(C(=O)C(N1C([C@@]2(C(=O)N(c3c(nc(c4c(c(c(c(c34)[H])[H])[H])[H])[H])[H])C([C@@]2(C([H])([H])[H])[H])([H])[H])c2c(c(c(c(c2C1=O)[H])[H])[H])[H])([H])[H])([H])[H])[H])([H])([H])[H]

>  <h>  (36) 
<NA>

>  <Training>  (36) 
True

>  <Success>  (36) 
True

>  <enamine_searched>  (36) 
False

>  <enamine_id>  (36) 
nan

$$$$

     RDKit          3D

 46 48  0  0  0  0  0  0  0  0999 V2000
   -8.1582   -4.6949  -26.5425 C   0  0  0  0  0  0  0  0  0  0  0  0
   -8.6538   -4.9600  -25.1187 C   0  0  1  0  0  0  0  0  0  0  0  0
   -7.5895   -5.5251  -24.1814 C   0  0  0  0  0  0  0  0  0  0  0  0
   -6.6147   -4.5190  -23.5533 C   0  0  1  0  0  0  0  0  0  0  0  0
   -5.4119   -4.1595  -24.4399 C   0  0  0  0  0  0  0  0  0  0  0  0
   -4.6075   -3.7382  -23.8291 H   0  0  0  0  0  0  0  0  0  0  0  0
   -5.6633   -3.4319  -25.2146 H   0  0  0  0  0  0  0  0  0  0  0  0
   -5.0164   -5.0546  -24.9374 H   0  0  0  0  0  0  0  0  0  0  0  0
   -7.3251   -3.3386  -23.0136 N   0  0  0  0  0  0  0  0  0  0  0  0
   -6.7238   -2.7043  -21.9380 C   0  0  0  0  0  0  0  0  0  0  0  0
   -5.6765   -3.1176  -21.4665 O   0  0  0  0  0  0  0  0  0  0  0  0
   -7.4080   -1.4717  -21.2838 C   0  0  0  0  0  0  0  0  0  0  0  0
   -6.5768   -0.8352  -20.1917 C   0  0  0  0  0  0  0  0  0  0  0  0
   -6.8746   -1.0415  -18.8717 C   0  0  0  0  0  0  0  0  0  0  0  0
   -6.1983   -0.5149  -17.8169 N   0  0  0  0  0  0  0  0  0  0  0  0
   -5.1559    0.2309  -18.0744 C   0  0  0  0  0  0  0  0  0  0  0  0
   -4.7162    0.5307  -19.3876 C   0  0  0  0  0  0  0  0  0  0  0  0
   -3.5888    1.3564  -19.6261 C   0  0  0  0  0  0  0  0  0  0  0  0
   -3.1901    1.6341  -20.9044 C   0  0  0  0  0  0  0  0  0  0  0  0
   -3.9041    1.0915  -21.9951 C   0  0  0  0  0  0  0  0  0  0  0  0
   -4.9998    0.2898  -21.7887 C   0  0  0  0  0  0  0  0  0  0  0  0
   -5.4439   -0.0136  -20.4772 C   0  0  0  0  0  0  0  0  0  0  0  0
   -5.5349   -0.1228  -22.6381 H   0  0  0  0  0  0  0  0  0  0  0  0
   -3.5816    1.3181  -23.0060 H   0  0  0  0  0  0  0  0  0  0  0  0
   -2.3311    2.2743  -21.0880 H   0  0  0  0  0  0  0  0  0  0  0  0
   -3.0564    1.7728  -18.7738 H   0  0  0  0  0  0  0  0  0  0  0  0
   -4.6028    0.6283  -17.2189 H   0  0  0  0  0  0  0  0  0  0  0  0
   -7.7178   -1.6690  -18.5859 H   0  0  0  0  0  0  0  0  0  0  0  0
   -7.6720   -0.7138  -22.0331 H   0  0  0  0  0  0  0  0  0  0  0  0
   -8.3593   -1.8082  -20.8482 H   0  0  0  0  0  0  0  0  0  0  0  0
   -8.4101   -2.7195  -23.7938 C   0  0  1  0  0  0  0  0  0  0  0  0
   -7.9394   -1.6592  -24.8006 C   0  0  0  0  0  0  0  0  0  0  0  0
   -7.4435   -2.0879  -25.6755 H   0  0  0  0  0  0  0  0  0  0  0  0
   -8.7984   -1.0845  -25.1704 H   0  0  0  0  0  0  0  0  0  0  0  0
   -7.2437   -0.9496  -24.3427 H   0  0  0  0  0  0  0  0  0  0  0  0
   -9.3296   -3.7775  -24.4248 C   0  0  0  0  0  0  0  0  0  0  0  0
   -9.9792   -4.1698  -23.6353 H   0  0  0  0  0  0  0  0  0  0  0  0
   -9.9957   -3.2775  -25.1356 H   0  0  0  0  0  0  0  0  0  0  0  0
   -9.0328   -2.1949  -23.0633 H   0  0  0  0  0  0  0  0  0  0  0  0
   -6.1940   -5.0184  -22.6791 H   0  0  0  0  0  0  0  0  0  0  0  0
   -8.0923   -6.0555  -23.3654 H   0  0  0  0  0  0  0  0  0  0  0  0
   -7.0110   -6.2880  -24.7142 H   0  0  0  0  0  0  0  0  0  0  0  0
   -9.4274   -5.7358  -25.2237 H   0  0  0  0  0  0  0  0  0  0  0  0
   -7.9238   -5.6405  -27.0467 H   0  0  0  0  0  0  0  0  0  0  0  0
   -8.9305   -4.1942  -27.1378 H   0  0  0  0  0  0  0  0  0  0  0  0
   -7.2551   -4.0807  -26.5813 H   0  0  0  0  0  0  0  0  0  0  0  0
  1  2  1  0
  2  3  1  0
  3  4  1  0
  4  5  1  0
  5  6  1  0
  5  7  1  0
  5  8  1  0
  4  9  1  0
  9 10  1  0
 10 11  2  0
 10 12  1  0
 12 13  1  0
 13 14  2  0
 14 15  1  0
 15 16  2  0
 16 17  1  0
 17 18  2  0
 18 19  1  0
 19 20  2  0
 20 21  1  0
 21 22  2  0
 21 23  1  0
 20 24  1  0
 19 25  1  0
 18 26  1  0
 16 27  1  0
 14 28  1  0
 12 29  1  0
 12 30  1  0
  9 31  1  0
 31 32  1  0
 32 33  1  0
 32 34  1  0
 32 35  1  0
 31 36  1  0
 36 37  1  0
 36 38  1  0
 31 39  1  1
  4 40  1  1
  3 41  1  0
  3 42  1  0
  2 43  1  6
  1 44  1  0
  1 45  1  0
  1 46  1  0
 36  2  1  0
 22 13  1  0
 22 17  1  0
M  END
>  <cnnaffinities>  (37) 
[5.23914]

>  <score>  (37) 
5.23914

>  <index>  (37) 
38

>  <Smiles>  (37) 
C([C@]1(C([C@@](C([H])([H])[H])(N(C(=O)C(c2c(nc(c3c(c(c(c(c23)[H])[H])[H])[H])[H])[H])([H])[H])[C@@](C([H])([H])[H])(C1([H])[H])[H])[H])([H])[H])[H])([H])([H])[H]

>  <h>  (37) 
<NA>

>  <Training>  (37) 
True

>  <Success>  (37) 
True

>  <enamine_searched>  (37) 
False

>  <enamine_id>  (37) 
nan

$$$$

     RDKit          3D

 40 44  0  0  0  0  0  0  0  0999 V2000
   -7.2405    0.9281  -25.5989 C   0  0  0  0  0  0  0  0  0  0  0  0
   -6.5123   -0.3944  -25.4058 C   0  0  0  0  0  0  0  0  0  0  0  0
   -5.3001   -0.5078  -25.5325 O   0  0  0  0  0  0  0  0  0  0  0  0
   -7.2738   -1.4755  -25.0825 N   0  0  0  0  0  0  0  0  0  0  0  0
   -6.6401   -2.7667  -24.7373 C   0  0  0  0  0  0  0  0  0  0  0  0
   -7.8130   -3.4853  -24.0478 C   0  0  2  0  0  0  0  0  0  0  0  0
   -9.0053   -2.9600  -24.8646 C   0  0  0  0  0  0  0  0  0  0  0  0
   -8.6638   -1.4863  -24.5591 C   0  0  1  0  0  0  0  0  0  0  0  0
   -8.5695   -1.5539  -23.0896 C   0  0  0  0  0  0  0  0  0  0  0  0
   -8.1691   -0.6102  -22.0873 C   0  0  0  0  0  0  0  0  0  0  0  0
   -8.3488    0.5802  -21.9910 O   0  0  0  0  0  1  0  0  0  0  0  0
   -7.4018   -1.3875  -21.1871 N   0  0  0  0  0  0  0  0  0  0  0  0
   -6.5794   -0.8211  -20.1806 C   0  0  0  0  0  0  0  0  0  0  0  0
   -6.8973   -1.0390  -18.8678 C   0  0  0  0  0  0  0  0  0  0  0  0
   -6.2160   -0.5046  -17.8294 N   0  0  0  0  0  0  0  0  0  0  0  0
   -5.1716    0.2347  -18.0957 C   0  0  0  0  0  0  0  0  0  0  0  0
   -4.7212    0.5303  -19.4105 C   0  0  0  0  0  0  0  0  0  0  0  0
   -3.5846    1.3510  -19.6401 C   0  0  0  0  0  0  0  0  0  0  0  0
   -3.1756    1.6240  -20.9157 C   0  0  0  0  0  0  0  0  0  0  0  0
   -3.8790    1.0718  -22.0124 C   0  0  0  0  0  0  0  0  0  0  0  0
   -4.9743    0.2686  -21.8147 C   0  0  0  0  0  0  0  0  0  0  0  0
   -5.4410   -0.0102  -20.4988 C   0  0  0  0  0  0  0  0  0  0  0  0
   -5.4882   -0.1517  -22.6771 H   0  0  0  0  0  0  0  0  0  0  0  0
   -3.5604    1.2935  -23.0263 H   0  0  0  0  0  0  0  0  0  0  0  0
   -2.3210    2.2729  -21.0929 H   0  0  0  0  0  0  0  0  0  0  0  0
   -3.0707    1.7674  -18.7782 H   0  0  0  0  0  0  0  0  0  0  0  0
   -4.6251    0.6277  -17.2393 H   0  0  0  0  0  0  0  0  0  0  0  0
   -7.7372   -1.6749  -18.6040 H   0  0  0  0  0  0  0  0  0  0  0  0
   -7.2386   -2.6983  -21.6499 C   0  0  0  0  0  0  0  0  0  0  0  0
   -6.4853   -3.5295  -21.2056 O   0  0  0  0  0  0  0  0  0  0  0  0
   -8.0681   -2.7873  -22.7643 N   0  0  0  0  0  0  0  0  0  0  0  0
   -9.2820   -0.6913  -24.9849 H   0  0  0  0  0  0  0  0  0  0  0  0
   -9.9668   -3.2769  -24.4634 H   0  0  0  0  0  0  0  0  0  0  0  0
   -8.9260   -3.1969  -25.9295 H   0  0  0  0  0  0  0  0  0  0  0  0
   -7.7007   -4.5527  -23.9050 H   0  0  0  0  0  0  0  0  0  0  0  0
   -5.7905   -2.6274  -24.0593 H   0  0  0  0  0  0  0  0  0  0  0  0
   -6.2961   -3.2674  -25.6444 H   0  0  0  0  0  0  0  0  0  0  0  0
   -6.4885    1.6574  -25.9043 H   0  0  0  0  0  0  0  0  0  0  0  0
   -7.7262    1.2541  -24.6711 H   0  0  0  0  0  0  0  0  0  0  0  0
   -8.0217    0.8627  -26.3668 H   0  0  0  0  0  0  0  0  0  0  0  0
  1  2  1  0
  2  3  2  0
  2  4  1  0
  4  5  1  0
  5  6  1  0
  6  7  1  0
  7  8  1  0
  8  9  1  0
  9 10  2  0
 10 11  1  0
 10 12  1  0
 12 13  1  0
 13 14  2  0
 14 15  1  0
 15 16  2  0
 16 17  1  0
 17 18  2  0
 18 19  1  0
 19 20  2  0
 20 21  1  0
 21 22  2  0
 21 23  1  0
 20 24  1  0
 19 25  1  0
 18 26  1  0
 16 27  1  0
 14 28  1  0
 12 29  1  0
 29 30  2  0
 29 31  1  0
  8 32  1  1
  7 33  1  0
  7 34  1  0
  6 35  1  1
  5 36  1  0
  5 37  1  0
  1 38  1  0
  1 39  1  0
  1 40  1  0
  8  4  1  0
 31  9  1  0
 31  6  1  0
 22 13  1  0
 22 17  1  0
M  CHG  1  11  -1
M  END
>  <cnnaffinities>  (38) 
[5.34288]

>  <score>  (38) 
5.34288

>  <index>  (38) 
39

>  <Smiles>  (38) 
C(C(=O)N1C([C@@]2(C([C@]1(c1c([O-])n(c3c(nc(c4c(c(c(c(c34)[H])[H])[H])[H])[H])[H])c(=O)n21)[H])([H])[H])[H])([H])[H])([H])([H])[H]

>  <h>  (38) 
<NA>

>  <Training>  (38) 
True

>  <Success>  (38) 
True

>  <enamine_searched>  (38) 
False

>  <enamine_id>  (38) 
nan

$$$$

     RDKit          3D

 40 42  0  0  0  0  0  0  0  0999 V2000
   -6.4971    1.4268  -26.8582 C   0  0  0  0  0  0  0  0  0  0  0  0
   -7.5014    1.0192  -25.7825 C   0  0  0  0  0  0  0  0  0  0  0  0
   -7.3103   -0.4348  -25.3653 C   0  0  0  0  0  0  0  0  0  0  0  0
   -8.2785   -0.8311  -24.2613 C   0  0  0  0  0  0  0  0  0  0  0  0
   -8.1762    0.0878  -23.1321 N   0  0  0  0  0  0  0  0  0  0  0  0
   -8.3764   -0.3123  -21.8079 C   0  0  0  0  0  0  0  0  0  0  0  0
   -9.1754    0.2290  -21.0753 O   0  0  0  0  0  0  0  0  0  0  0  0
   -7.4442   -1.4128  -21.2751 C   0  0  0  0  0  0  0  0  0  0  0  0
   -6.5692   -0.8352  -20.1824 C   0  0  0  0  0  0  0  0  0  0  0  0
   -6.8790   -1.0333  -18.8637 C   0  0  0  0  0  0  0  0  0  0  0  0
   -6.2000   -0.5060  -17.8125 N   0  0  0  0  0  0  0  0  0  0  0  0
   -5.1534    0.2325  -18.0745 C   0  0  0  0  0  0  0  0  0  0  0  0
   -4.7166    0.5354  -19.3883 C   0  0  0  0  0  0  0  0  0  0  0  0
   -3.5957    1.3681  -19.6268 C   0  0  0  0  0  0  0  0  0  0  0  0
   -3.2092    1.6631  -20.9047 C   0  0  0  0  0  0  0  0  0  0  0  0
   -3.9312    1.1288  -21.9959 C   0  0  0  0  0  0  0  0  0  0  0  0
   -5.0182    0.3167  -21.7881 C   0  0  0  0  0  0  0  0  0  0  0  0
   -5.4478   -0.0022  -20.4757 C   0  0  0  0  0  0  0  0  0  0  0  0
   -5.5538   -0.0867  -22.6393 H   0  0  0  0  0  0  0  0  0  0  0  0
   -3.6173    1.3681  -23.0068 H   0  0  0  0  0  0  0  0  0  0  0  0
   -2.3583    2.3129  -21.0859 H   0  0  0  0  0  0  0  0  0  0  0  0
   -3.0629    1.7809  -18.7737 H   0  0  0  0  0  0  0  0  0  0  0  0
   -4.6016    0.6282  -17.2190 H   0  0  0  0  0  0  0  0  0  0  0  0
   -7.7256   -1.6576  -18.5811 H   0  0  0  0  0  0  0  0  0  0  0  0
   -8.0695   -2.2038  -20.8448 H   0  0  0  0  0  0  0  0  0  0  0  0
   -6.8340   -1.8495  -22.0749 H   0  0  0  0  0  0  0  0  0  0  0  0
   -8.3909    1.4919  -23.4641 C   0  0  0  0  0  0  0  0  0  0  0  0
   -7.4155    1.9214  -24.5562 C   0  0  0  0  0  0  0  0  0  0  0  0
   -7.6019    2.9620  -24.8415 H   0  0  0  0  0  0  0  0  0  0  0  0
   -6.3939    1.8969  -24.1548 H   0  0  0  0  0  0  0  0  0  0  0  0
   -9.4242    1.6918  -23.7876 H   0  0  0  0  0  0  0  0  0  0  0  0
   -8.2313    2.0726  -22.5557 H   0  0  0  0  0  0  0  0  0  0  0  0
   -8.0800   -1.8414  -23.9076 H   0  0  0  0  0  0  0  0  0  0  0  0
   -9.3014   -0.8425  -24.6785 H   0  0  0  0  0  0  0  0  0  0  0  0
   -7.4344   -1.0948  -26.2312 H   0  0  0  0  0  0  0  0  0  0  0  0
   -6.2850   -0.5782  -25.0067 H   0  0  0  0  0  0  0  0  0  0  0  0
   -8.5123    1.1201  -26.2015 H   0  0  0  0  0  0  0  0  0  0  0  0
   -5.4705    1.3392  -26.4822 H   0  0  0  0  0  0  0  0  0  0  0  0
   -6.5764    0.7869  -27.7446 H   0  0  0  0  0  0  0  0  0  0  0  0
   -6.6432    2.4658  -27.1750 H   0  0  0  0  0  0  0  0  0  0  0  0
  1  2  1  0
  2  3  1  0
  3  4  1  0
  4  5  1  0
  5  6  1  0
  6  7  2  0
  6  8  1  0
  8  9  1  0
  9 10  2  0
 10 11  1  0
 11 12  2  0
 12 13  1  0
 13 14  2  0
 14 15  1  0
 15 16  2  0
 16 17  1  0
 17 18  2  0
 17 19  1  0
 16 20  1  0
 15 21  1  0
 14 22  1  0
 12 23  1  0
 10 24  1  0
  8 25  1  0
  8 26  1  0
  5 27  1  0
 27 28  1  0
 28 29  1  0
 28 30  1  0
 27 31  1  0
 27 32  1  0
  4 33  1  0
  4 34  1  0
  3 35  1  0
  3 36  1  0
  2 37  1  0
  1 38  1  0
  1 39  1  0
  1 40  1  0
 28  2  1  0
 18  9  1  0
 18 13  1  0
M  END
>  <cnnaffinities>  (39) 
[4.67773, 4.67766, 4.24861, 4.24844, 5.0218]

>  <score>  (39) 
4.67773

>  <index>  (39) 
40

>  <Smiles>  (39) 
C(C1(C(C(N(C(=O)C(c2c(nc(c3c(c(c(c(c23)[H])[H])[H])[H])[H])[H])([H])[H])C(C1([H])[H])([H])[H])([H])[H])([H])[H])[H])([H])([H])[H]

>  <h>  (39) 
<NA>

>  <Training>  (39) 
True

>  <Success>  (39) 
True

>  <enamine_searched>  (39) 
False

>  <enamine_id>  (39) 
nan

$$$$

     RDKit          3D

 67 71  0  0  0  0  0  0  0  0999 V2000
   -7.5637    3.0450  -21.8330 C   0  0  0  0  0  0  0  0  0  0  0  0
   -8.7127    2.5154  -22.5485 N   0  0  0  0  0  0  0  0  0  0  0  0
   -8.4572    1.6974  -23.6055 C   0  0  0  0  0  0  0  0  0  0  0  0
   -7.3208    1.4075  -23.9474 O   0  0  0  0  0  0  0  0  0  0  0  0
   -9.6700    1.1818  -24.3587 C   0  0  0  0  0  0  0  0  0  0  0  0
  -10.1090   -0.0849  -23.8343 N   0  0  0  0  0  0  0  0  0  0  0  0
   -9.2311   -1.2405  -23.8688 C   0  0  0  0  0  0  0  0  0  0  0  0
   -9.2955   -1.9930  -22.5145 C   0  0  2  0  0  0  0  0  0  0  0  0
   -8.6991   -1.0498  -21.4352 C   0  0  0  0  0  0  0  0  0  0  0  0
   -9.2353   -0.0784  -20.9433 O   0  0  0  0  0  0  0  0  0  0  0  0
   -7.4000   -1.4488  -21.1774 N   0  0  0  0  0  0  0  0  0  0  0  0
   -6.6134   -0.8293  -20.1781 C   0  0  0  0  0  0  0  0  0  0  0  0
   -6.9458   -1.0078  -18.8582 C   0  0  0  0  0  0  0  0  0  0  0  0
   -6.2543   -0.4818  -17.8252 N   0  0  0  0  0  0  0  0  0  0  0  0
   -5.1941    0.2351  -18.1042 C   0  0  0  0  0  0  0  0  0  0  0  0
   -4.7484    0.5143  -19.4244 C   0  0  0  0  0  0  0  0  0  0  0  0
   -3.6230    1.3452  -19.6635 C   0  0  0  0  0  0  0  0  0  0  0  0
   -3.2477    1.6499  -20.9435 C   0  0  0  0  0  0  0  0  0  0  0  0
   -3.9801    1.1385  -22.0360 C   0  0  0  0  0  0  0  0  0  0  0  0
   -5.0737    0.3260  -21.8302 C   0  0  0  0  0  0  0  0  0  0  0  0
   -5.4793   -0.0227  -20.5107 C   0  0  0  0  0  0  0  0  0  0  0  0
   -5.6648    0.0155  -22.6856 H   0  0  0  0  0  0  0  0  0  0  0  0
   -3.6854    1.4014  -23.0481 H   0  0  0  0  0  0  0  0  0  0  0  0
   -2.3978    2.3019  -21.1214 H   0  0  0  0  0  0  0  0  0  0  0  0
   -3.0891    1.7471  -18.8073 H   0  0  0  0  0  0  0  0  0  0  0  0
   -4.6312    0.6425  -17.2640 H   0  0  0  0  0  0  0  0  0  0  0  0
   -7.8069   -1.6208  -18.6018 H   0  0  0  0  0  0  0  0  0  0  0  0
   -6.9666   -2.5855  -21.9647 C   0  0  0  0  0  0  0  0  0  0  0  0
   -8.3042   -3.1881  -22.4408 C   0  0  2  0  0  0  0  0  0  0  0  0
   -8.1992   -3.9858  -23.7371 C   0  0  0  0  0  0  0  0  0  0  0  0
   -7.2582   -5.4869  -23.5173 S   0  0  0  0  0  0  0  0  0  0  0  0
   -5.8575   -5.1299  -23.3475 O   0  0  0  0  0  0  0  0  0  0  0  0
   -7.9271   -6.3058  -22.5151 O   0  0  0  0  0  0  0  0  0  0  0  0
   -7.4273   -6.2323  -24.9924 N   0  0  0  0  0  0  0  0  0  0  0  0
   -8.6733   -6.9413  -25.2550 C   0  0  0  0  0  0  0  0  0  0  0  0
   -9.5150   -6.2888  -25.5426 H   0  0  0  0  0  0  0  0  0  0  0  0
   -8.4934   -7.6409  -26.0764 H   0  0  0  0  0  0  0  0  0  0  0  0
   -8.9418   -7.5096  -24.3623 H   0  0  0  0  0  0  0  0  0  0  0  0
   -6.7541   -5.6416  -26.1428 C   0  0  0  0  0  0  0  0  0  0  0  0
   -7.2916   -4.7905  -26.5943 H   0  0  0  0  0  0  0  0  0  0  0  0
   -6.6587   -6.4186  -26.9070 H   0  0  0  0  0  0  0  0  0  0  0  0
   -5.7518   -5.3240  -25.8460 H   0  0  0  0  0  0  0  0  0  0  0  0
   -9.1963   -4.2692  -24.0921 H   0  0  0  0  0  0  0  0  0  0  0  0
   -7.7029   -3.3980  -24.5179 H   0  0  0  0  0  0  0  0  0  0  0  0
   -8.6377   -3.8666  -21.6485 H   0  0  0  0  0  0  0  0  0  0  0  0
   -6.3429   -2.2760  -22.8183 H   0  0  0  0  0  0  0  0  0  0  0  0
   -6.3870   -3.2959  -21.3692 H   0  0  0  0  0  0  0  0  0  0  0  0
  -10.7689   -2.3201  -22.2862 C   0  0  0  0  0  0  0  0  0  0  0  0
  -11.2036   -3.4291  -21.5530 C   0  0  0  0  0  0  0  0  0  0  0  0
  -12.5299   -3.5090  -21.1616 C   0  0  0  0  0  0  0  0  0  0  0  0
  -12.8904   -4.4192  -20.2430 F   0  0  0  0  0  0  0  0  0  0  0  0
  -13.5140   -2.6434  -21.6125 C   0  0  0  0  0  0  0  0  0  0  0  0
  -13.1102   -1.6052  -22.4190 C   0  0  0  0  0  0  0  0  0  0  0  0
  -11.7625   -1.4294  -22.7221 C   0  0  0  0  0  0  0  0  0  0  0  0
  -11.4147   -0.1884  -23.4629 C   0  0  0  0  0  0  0  0  0  0  0  0
  -12.2454    0.6810  -23.6923 O   0  0  0  0  0  0  0  0  0  0  0  0
  -13.8120   -0.8803  -22.8105 H   0  0  0  0  0  0  0  0  0  0  0  0
  -14.5451   -2.7827  -21.3067 H   0  0  0  0  0  0  0  0  0  0  0  0
  -10.5268   -4.2041  -21.2176 H   0  0  0  0  0  0  0  0  0  0  0  0
   -9.5441   -1.9161  -24.6770 H   0  0  0  0  0  0  0  0  0  0  0  0
   -8.2131   -0.8956  -24.0738 H   0  0  0  0  0  0  0  0  0  0  0  0
   -9.4151    1.0884  -25.4192 H   0  0  0  0  0  0  0  0  0  0  0  0
  -10.5103    1.8641  -24.2301 H   0  0  0  0  0  0  0  0  0  0  0  0
   -9.5687    2.4117  -22.0056 H   0  0  0  0  0  0  0  0  0  0  0  0
   -7.8874    3.6992  -21.0246 H   0  0  0  0  0  0  0  0  0  0  0  0
   -6.9446    2.2297  -21.4354 H   0  0  0  0  0  0  0  0  0  0  0  0
   -6.9488    3.6448  -22.5132 H   0  0  0  0  0  0  0  0  0  0  0  0
  1  2  1  0
  2  3  1  0
  3  4  2  0
  3  5  1  0
  5  6  1  0
  6  7  1  0
  8  7  1  6
  8  9  1  0
  9 10  2  0
  9 11  1  0
 11 12  1  0
 12 13  2  0
 13 14  1  0
 14 15  2  0
 15 16  1  0
 16 17  2  0
 17 18  1  0
 18 19  2  0
 19 20  1  0
 20 21  2  0
 20 22  1  0
 19 23  1  0
 18 24  1  0
 17 25  1  0
 15 26  1  0
 13 27  1  0
 11 28  1  0
 28 29  1  0
 29 30  1  0
 30 31  1  0
 31 32  2  0
 31 33  2  0
 31 34  1  0
 34 35  1  0
 35 36  1  0
 35 37  1  0
 35 38  1  0
 34 39  1  0
 39 40  1  0
 39 41  1  0
 39 42  1  0
 30 43  1  0
 30 44  1  0
 29 45  1  1
 28 46  1  0
 28 47  1  0
  8 48  1  0
 48 49  2  0
 49 50  1  0
 50 51  1  0
 50 52  2  0
 52 53  1  0
 53 54  2  0
 54 55  1  0
 55 56  2  0
 53 57  1  0
 52 58  1  0
 49 59  1  0
  7 60  1  0
  7 61  1  0
  5 62  1  0
  5 63  1  0
  2 64  1  0
  1 65  1  0
  1 66  1  0
  1 67  1  0
 55  6  1  0
 29  8  1  0
 54 48  1  0
 21 12  1  0
 21 16  1  0
M  END
>  <cnnaffinities>  (40) 
[7.04468, 7.0582]

>  <score>  (40) 
7.04468

>  <index>  (40) 
41

>  <Smiles>  (40) 
C(N(C(=O)C(N1C([C@@]2(C(=O)N(c3c(nc(c4c(c(c(c(c34)[H])[H])[H])[H])[H])[H])C([C@@]2(C(S(=O)(=O)N(C([H])([H])[H])C([H])([H])[H])([H])[H])[H])([H])[H])c2c(c(F)c(c(c2C1=O)[H])[H])[H])([H])[H])([H])[H])[H])([H])([H])[H]

>  <h>  (40) 
<NA>

>  <Training>  (40) 
True

>  <Success>  (40) 
True

>  <enamine_searched>  (40) 
False

>  <enamine_id>  (40) 
nan

$$$$

     RDKit          3D

 67 72  0  0  0  0  0  0  0  0999 V2000
   -7.8008   -3.3937  -29.1323 C   0  0  0  0  0  0  0  0  0  0  0  0
   -8.4189   -2.5039  -28.1795 N   0  0  0  0  0  0  0  0  0  0  0  0
   -7.7322   -1.8732  -27.1947 C   0  0  0  0  0  0  0  0  0  0  0  0
   -6.6041   -2.1621  -26.8265 O   0  0  0  0  0  0  0  0  0  0  0  0
   -8.5610   -0.7353  -26.6162 C   0  0  0  0  0  0  0  0  0  0  0  0
   -9.2288   -1.1175  -25.3936 N   0  0  0  0  0  0  0  0  0  0  0  0
   -8.5916   -0.7198  -24.1564 C   0  0  0  0  0  0  0  0  0  0  0  0
   -9.0653   -1.5368  -22.9397 C   0  0  2  0  0  0  0  0  0  0  0  0
   -8.5651   -0.7658  -21.6992 C   0  0  0  0  0  0  0  0  0  0  0  0
   -9.0169    0.2606  -21.2320 O   0  0  0  0  0  0  0  0  0  0  0  0
   -7.4219   -1.3890  -21.2389 N   0  0  0  0  0  0  0  0  0  0  0  0
   -6.6236   -0.8022  -20.2219 C   0  0  0  0  0  0  0  0  0  0  0  0
   -6.9545   -1.0040  -18.9087 C   0  0  0  0  0  0  0  0  0  0  0  0
   -6.2649   -0.4985  -17.8572 N   0  0  0  0  0  0  0  0  0  0  0  0
   -5.2045    0.2233  -18.1168 C   0  0  0  0  0  0  0  0  0  0  0  0
   -4.7522    0.5224  -19.4322 C   0  0  0  0  0  0  0  0  0  0  0  0
   -3.6181    1.3439  -19.6563 C   0  0  0  0  0  0  0  0  0  0  0  0
   -3.2258    1.6447  -20.9312 C   0  0  0  0  0  0  0  0  0  0  0  0
   -3.9404    1.1302  -22.0348 C   0  0  0  0  0  0  0  0  0  0  0  0
   -5.0377    0.3263  -21.8426 C   0  0  0  0  0  0  0  0  0  0  0  0
   -5.4745   -0.0006  -20.5281 C   0  0  0  0  0  0  0  0  0  0  0  0
   -5.5895   -0.0456  -22.6997 H   0  0  0  0  0  0  0  0  0  0  0  0
   -3.6198    1.3816  -23.0415 H   0  0  0  0  0  0  0  0  0  0  0  0
   -2.3667    2.2865  -21.1008 H   0  0  0  0  0  0  0  0  0  0  0  0
   -3.0865    1.7366  -18.7946 H   0  0  0  0  0  0  0  0  0  0  0  0
   -4.6422    0.6129  -17.2671 H   0  0  0  0  0  0  0  0  0  0  0  0
   -7.8239   -1.6114  -18.6686 H   0  0  0  0  0  0  0  0  0  0  0  0
   -7.0657   -2.5948  -21.9653 C   0  0  0  0  0  0  0  0  0  0  0  0
   -8.3317   -2.9111  -22.7642 C   0  0  2  0  0  0  0  0  0  0  0  0
   -8.0221   -3.7174  -24.0232 C   0  0  0  0  0  0  0  0  0  0  0  0
   -9.2429   -4.2484  -24.5836 N   0  0  0  0  0  0  0  0  0  0  0  0
   -9.3355   -4.9059  -25.7767 C   0  0  0  0  0  0  0  0  0  0  0  0
  -10.8815   -5.0951  -26.5801 S   0  0  0  0  0  0  0  0  0  0  0  0
  -10.0790   -6.0210  -27.8022 C   0  0  0  0  0  0  0  0  0  0  0  0
   -8.8049   -6.1767  -27.6437 N   0  0  0  0  0  0  0  0  0  0  0  0
   -8.3617   -5.5580  -26.4977 C   0  0  0  0  0  0  0  0  0  0  0  0
   -6.9067   -5.6690  -26.1443 C   0  0  0  0  0  0  0  0  0  0  0  0
   -6.3984   -6.2692  -26.9028 H   0  0  0  0  0  0  0  0  0  0  0  0
   -6.7648   -6.1661  -25.1782 H   0  0  0  0  0  0  0  0  0  0  0  0
   -6.4285   -4.6833  -26.0967 H   0  0  0  0  0  0  0  0  0  0  0  0
  -10.6270   -6.3944  -28.6547 H   0  0  0  0  0  0  0  0  0  0  0  0
  -10.1174   -3.9764  -24.1490 H   0  0  0  0  0  0  0  0  0  0  0  0
   -7.3520   -4.5434  -23.7466 H   0  0  0  0  0  0  0  0  0  0  0  0
   -7.4989   -3.1050  -24.7713 H   0  0  0  0  0  0  0  0  0  0  0  0
   -8.9854   -3.5298  -22.1320 H   0  0  0  0  0  0  0  0  0  0  0  0
   -6.2053   -2.4323  -22.6363 H   0  0  0  0  0  0  0  0  0  0  0  0
   -6.7967   -3.4002  -21.2721 H   0  0  0  0  0  0  0  0  0  0  0  0
  -10.5696   -1.6842  -22.9987 C   0  0  0  0  0  0  0  0  0  0  0  0
  -11.2856   -1.9978  -21.8429 C   0  0  0  0  0  0  0  0  0  0  0  0
  -12.6467   -2.2481  -21.9044 C   0  0  0  0  0  0  0  0  0  0  0  0
  -13.4563   -2.8204  -20.4746 Cl  0  0  0  0  0  0  0  0  0  0  0  0
  -13.3608   -2.1075  -23.0914 C   0  0  0  0  0  0  0  0  0  0  0  0
  -12.6512   -1.7943  -24.2368 C   0  0  0  0  0  0  0  0  0  0  0  0
  -11.2707   -1.6368  -24.2057 C   0  0  0  0  0  0  0  0  0  0  0  0
  -10.5405   -1.4886  -25.4953 C   0  0  0  0  0  0  0  0  0  0  0  0
  -11.0775   -1.6831  -26.5824 O   0  0  0  0  0  0  0  0  0  0  0  0
  -13.1427   -1.6878  -25.1921 H   0  0  0  0  0  0  0  0  0  0  0  0
  -14.4357   -2.2540  -23.1173 H   0  0  0  0  0  0  0  0  0  0  0  0
  -10.7666   -2.0375  -20.8938 H   0  0  0  0  0  0  0  0  0  0  0  0
   -8.7849    0.3432  -23.9649 H   0  0  0  0  0  0  0  0  0  0  0  0
   -7.5049   -0.8268  -24.2913 H   0  0  0  0  0  0  0  0  0  0  0  0
   -7.9461    0.1552  -26.4607 H   0  0  0  0  0  0  0  0  0  0  0  0
   -9.3253   -0.5298  -27.3570 H   0  0  0  0  0  0  0  0  0  0  0  0
   -9.4065   -2.2955  -28.2645 H   0  0  0  0  0  0  0  0  0  0  0  0
   -7.0863   -4.0457  -28.6258 H   0  0  0  0  0  0  0  0  0  0  0  0
   -7.2753   -2.8604  -29.9368 H   0  0  0  0  0  0  0  0  0  0  0  0
   -8.5779   -4.0293  -29.5541 H   0  0  0  0  0  0  0  0  0  0  0  0
  1  2  1  0
  2  3  1  0
  3  4  2  0
  3  5  1  0
  5  6  1  0
  6  7  1  0
  8  7  1  6
  8  9  1  0
  9 10  2  0
  9 11  1  0
 11 12  1  0
 12 13  2  0
 13 14  1  0
 14 15  2  0
 15 16  1  0
 16 17  2  0
 17 18  1  0
 18 19  2  0
 19 20  1  0
 20 21  2  0
 20 22  1  0
 19 23  1  0
 18 24  1  0
 17 25  1  0
 15 26  1  0
 13 27  1  0
 11 28  1  0
 28 29  1  0
 29 30  1  0
 30 31  1  0
 31 32  1  0
 32 33  1  0
 33 34  1  0
 34 35  2  0
 35 36  1  0
 36 37  1  0
 37 38  1  0
 37 39  1  0
 37 40  1  0
 34 41  1  0
 31 42  1  0
 30 43  1  0
 30 44  1  0
 29 45  1  1
 28 46  1  0
 28 47  1  0
  8 48  1  0
 48 49  2  0
 49 50  1  0
 50 51  1  0
 50 52  2  0
 52 53  1  0
 53 54  2  0
 54 55  1  0
 55 56  2  0
 53 57  1  0
 52 58  1  0
 49 59  1  0
  7 60  1  0
  7 61  1  0
  5 62  1  0
  5 63  1  0
  2 64  1  0
  1 65  1  0
  1 66  1  0
  1 67  1  0
 55  6  1  0
 29  8  1  0
 36 32  2  0
 54 48  1  0
 21 12  1  0
 21 16  1  0
M  END
>  <cnnaffinities>  (41) 
[6.59223]

>  <score>  (41) 
6.59223

>  <index>  (41) 
43

>  <Smiles>  (41) 
C(N(C(=O)C(N1C([C@@]2(C(=O)N(c3c(nc(c4c(c(c(c(c34)[H])[H])[H])[H])[H])[H])C([C@@]2(C(N(c2sc(nc2C([H])([H])[H])[H])[H])([H])[H])[H])([H])[H])c2c(c(Cl)c(c(c2C1=O)[H])[H])[H])([H])[H])([H])[H])[H])([H])([H])[H]

>  <h>  (41) 
<NA>

>  <Training>  (41) 
True

>  <Success>  (41) 
True

>  <enamine_searched>  (41) 
False

>  <enamine_id>  (41) 
nan

$$$$

     RDKit          3D

 60 64  0  0  0  0  0  0  0  0999 V2000
   -8.1402    0.0084  -29.7689 C   0  0  0  0  0  0  0  0  0  0  0  0
   -8.1997   -1.1189  -28.8672 N   0  0  0  0  0  0  0  0  0  0  0  0
   -7.3815   -1.1137  -27.7712 C   0  0  0  0  0  0  0  0  0  0  0  0
   -6.5405   -0.2583  -27.5496 O   0  0  0  0  0  0  0  0  0  0  0  0
   -7.6100   -2.3025  -26.8238 C   0  0  0  0  0  0  0  0  0  0  0  0
   -8.4747   -1.9280  -25.7149 N   0  0  0  0  0  0  0  0  0  0  0  0
   -7.9116   -1.2893  -24.5297 C   0  0  0  0  0  0  0  0  0  0  0  0
   -8.7525   -1.5435  -23.2484 C   0  0  2  0  0  0  0  0  0  0  0  0
   -8.2126   -0.5745  -22.1804 C   0  0  0  0  0  0  0  0  0  0  0  0
   -8.4032    0.6181  -22.0984 O   0  0  0  0  0  0  0  0  0  0  0  0
   -7.4128   -1.2939  -21.3125 N   0  0  0  0  0  0  0  0  0  0  0  0
   -6.6320   -0.7147  -20.2854 C   0  0  0  0  0  0  0  0  0  0  0  0
   -6.9499   -0.9827  -18.9793 C   0  0  0  0  0  0  0  0  0  0  0  0
   -6.2822   -0.4854  -17.9126 N   0  0  0  0  0  0  0  0  0  0  0  0
   -5.2310    0.2607  -18.1461 C   0  0  0  0  0  0  0  0  0  0  0  0
   -4.7532    0.5658  -19.4517 C   0  0  0  0  0  0  0  0  0  0  0  0
   -3.5970    1.3638  -19.6557 C   0  0  0  0  0  0  0  0  0  0  0  0
   -3.1522    1.6267  -20.9211 C   0  0  0  0  0  0  0  0  0  0  0  0
   -3.8300    1.0950  -22.0413 C   0  0  0  0  0  0  0  0  0  0  0  0
   -4.9524    0.3235  -21.8706 C   0  0  0  0  0  0  0  0  0  0  0  0
   -5.4585    0.0579  -20.5670 C   0  0  0  0  0  0  0  0  0  0  0  0
   -5.4626   -0.0894  -22.7367 H   0  0  0  0  0  0  0  0  0  0  0  0
   -3.4666    1.3100  -23.0417 H   0  0  0  0  0  0  0  0  0  0  0  0
   -2.2793    2.2544  -21.0748 H   0  0  0  0  0  0  0  0  0  0  0  0
   -3.0874    1.7638  -18.7833 H   0  0  0  0  0  0  0  0  0  0  0  0
   -4.6944    0.6590  -17.2819 H   0  0  0  0  0  0  0  0  0  0  0  0
   -7.8063   -1.6185  -18.7494 H   0  0  0  0  0  0  0  0  0  0  0  0
   -7.3347   -2.7086  -21.6030 C   0  0  0  0  0  0  0  0  0  0  0  0
   -8.5108   -2.9205  -22.5470 C   0  0  2  0  0  0  0  0  0  0  0  0
   -8.3941   -4.1352  -23.4468 C   0  0  0  0  0  0  0  0  0  0  0  0
   -7.1387   -4.1382  -24.0915 O   0  0  0  0  0  0  0  0  0  0  0  0
   -6.9701   -5.2502  -24.9302 C   0  0  0  0  0  0  0  0  0  0  0  0
   -7.0207   -6.1944  -24.3653 H   0  0  0  0  0  0  0  0  0  0  0  0
   -5.9808   -5.1666  -25.3861 H   0  0  0  0  0  0  0  0  0  0  0  0
   -7.7264   -5.2787  -25.7312 H   0  0  0  0  0  0  0  0  0  0  0  0
   -8.5106   -5.0494  -22.8440 H   0  0  0  0  0  0  0  0  0  0  0  0
   -9.2099   -4.1117  -24.1842 H   0  0  0  0  0  0  0  0  0  0  0  0
   -9.4079   -3.0686  -21.9255 H   0  0  0  0  0  0  0  0  0  0  0  0
   -7.4478   -3.2731  -20.6812 H   0  0  0  0  0  0  0  0  0  0  0  0
   -6.3713   -2.9882  -22.0481 H   0  0  0  0  0  0  0  0  0  0  0  0
  -10.2302   -1.3754  -23.5627 C   0  0  0  0  0  0  0  0  0  0  0  0
  -11.1821   -1.2533  -22.5371 C   0  0  0  0  0  0  0  0  0  0  0  0
  -12.5362   -1.2607  -22.8657 C   0  0  0  0  0  0  0  0  0  0  0  0
  -13.7500   -1.3571  -21.6328 Cl  0  0  0  0  0  0  0  0  0  0  0  0
  -12.9919   -1.3059  -24.1800 C   0  0  0  0  0  0  0  0  0  0  0  0
  -12.0523   -1.4301  -25.1813 C   0  0  0  0  0  0  0  0  0  0  0  0
  -10.6949   -1.4868  -24.8767 C   0  0  0  0  0  0  0  0  0  0  0  0
   -9.7936   -1.8097  -26.0153 C   0  0  0  0  0  0  0  0  0  0  0  0
  -10.2229   -2.0141  -27.1532 O   0  0  0  0  0  0  0  0  0  0  0  0
  -12.3031   -1.5547  -26.2274 H   0  0  0  0  0  0  0  0  0  0  0  0
  -14.0649   -1.3056  -24.3654 H   0  0  0  0  0  0  0  0  0  0  0  0
  -10.8865   -1.1908  -21.4938 H   0  0  0  0  0  0  0  0  0  0  0  0
   -6.8987   -1.6665  -24.3800 H   0  0  0  0  0  0  0  0  0  0  0  0
   -7.8298   -0.2037  -24.6770 H   0  0  0  0  0  0  0  0  0  0  0  0
   -6.6513   -2.6505  -26.4261 H   0  0  0  0  0  0  0  0  0  0  0  0
   -8.1040   -3.1143  -27.3720 H   0  0  0  0  0  0  0  0  0  0  0  0
   -9.1174   -1.5170  -28.6970 H   0  0  0  0  0  0  0  0  0  0  0  0
   -8.4160    0.9483  -29.2738 H   0  0  0  0  0  0  0  0  0  0  0  0
   -8.8078   -0.1763  -30.6153 H   0  0  0  0  0  0  0  0  0  0  0  0
   -7.1197    0.1220  -30.1419 H   0  0  0  0  0  0  0  0  0  0  0  0
  1  2  1  0
  2  3  1  0
  3  4  2  0
  3  5  1  0
  5  6  1  0
  6  7  1  0
  8  7  1  6
  8  9  1  0
  9 10  2  0
  9 11  1  0
 11 12  1  0
 12 13  2  0
 13 14  1  0
 14 15  2  0
 15 16  1  0
 16 17  2  0
 17 18  1  0
 18 19  2  0
 19 20  1  0
 20 21  2  0
 20 22  1  0
 19 23  1  0
 18 24  1  0
 17 25  1  0
 15 26  1  0
 13 27  1  0
 11 28  1  0
 28 29  1  0
 29 30  1  0
 30 31  1  0
 31 32  1  0
 32 33  1  0
 32 34  1  0
 32 35  1  0
 30 36  1  0
 30 37  1  0
 29 38  1  1
 28 39  1  0
 28 40  1  0
  8 41  1  0
 41 42  2  0
 42 43  1  0
 43 44  1  0
 43 45  2  0
 45 46  1  0
 46 47  2  0
 47 48  1  0
 48 49  2  0
 46 50  1  0
 45 51  1  0
 42 52  1  0
  7 53  1  0
  7 54  1  0
  5 55  1  0
  5 56  1  0
  2 57  1  0
  1 58  1  0
  1 59  1  0
  1 60  1  0
 48  6  1  0
 29  8  1  0
 47 41  1  0
 21 12  1  0
 21 16  1  0
M  END
>  <cnnaffinities>  (42) 
[6.25536, 6.61475]

>  <score>  (42) 
6.25536

>  <index>  (42) 
44

>  <Smiles>  (42) 
C(N(C(=O)C(N1C([C@@]2(C(=O)N(c3c(nc(c4c(c(c(c(c34)[H])[H])[H])[H])[H])[H])C([C@@]2(C(OC([H])([H])[H])([H])[H])[H])([H])[H])c2c(c(Cl)c(c(c2C1=O)[H])[H])[H])([H])[H])([H])[H])[H])([H])([H])[H]

>  <h>  (42) 
<NA>

>  <Training>  (42) 
True

>  <Success>  (42) 
True

>  <enamine_searched>  (42) 
False

>  <enamine_id>  (42) 
nan

$$$$

     RDKit          3D

 66 71  0  0  0  0  0  0  0  0999 V2000
   -7.0349    0.4841  -29.2725 C   0  0  0  0  0  0  0  0  0  0  0  0
   -7.4959   -0.6611  -28.5231 N   0  0  0  0  0  0  0  0  0  0  0  0
   -6.7353   -1.1163  -27.4925 C   0  0  0  0  0  0  0  0  0  0  0  0
   -5.6567   -0.6303  -27.1809 O   0  0  0  0  0  0  0  0  0  0  0  0
   -7.3431   -2.3037  -26.7403 C   0  0  0  0  0  0  0  0  0  0  0  0
   -8.2634   -1.8716  -25.7005 N   0  0  0  0  0  0  0  0  0  0  0  0
   -7.7266   -1.3538  -24.4514 C   0  0  0  0  0  0  0  0  0  0  0  0
   -8.6760   -1.5455  -23.2385 C   0  0  2  0  0  0  0  0  0  0  0  0
   -8.1975   -0.5687  -22.1530 C   0  0  0  0  0  0  0  0  0  0  0  0
   -8.4110    0.6208  -22.0732 O   0  0  0  0  0  0  0  0  0  0  0  0
   -7.3957   -1.2742  -21.2730 N   0  0  0  0  0  0  0  0  0  0  0  0
   -6.6167   -0.6845  -20.2519 C   0  0  0  0  0  0  0  0  0  0  0  0
   -6.9289   -0.9437  -18.9425 C   0  0  0  0  0  0  0  0  0  0  0  0
   -6.2598   -0.4394  -17.8807 N   0  0  0  0  0  0  0  0  0  0  0  0
   -5.2103    0.3039  -18.1308 C   0  0  0  0  0  0  0  0  0  0  0  0
   -4.7328    0.5992  -19.4380 C   0  0  0  0  0  0  0  0  0  0  0  0
   -3.5704    1.3870  -19.6497 C   0  0  0  0  0  0  0  0  0  0  0  0
   -3.1289    1.6380  -20.9187 C   0  0  0  0  0  0  0  0  0  0  0  0
   -3.8126    1.1012  -22.0322 C   0  0  0  0  0  0  0  0  0  0  0  0
   -4.9374    0.3359  -21.8511 C   0  0  0  0  0  0  0  0  0  0  0  0
   -5.4419    0.0832  -20.5446 C   0  0  0  0  0  0  0  0  0  0  0  0
   -5.4482   -0.0842  -22.7119 H   0  0  0  0  0  0  0  0  0  0  0  0
   -3.4514    1.3066  -23.0352 H   0  0  0  0  0  0  0  0  0  0  0  0
   -2.2534    2.2588  -21.0795 H   0  0  0  0  0  0  0  0  0  0  0  0
   -3.0579    1.7939  -18.7822 H   0  0  0  0  0  0  0  0  0  0  0  0
   -4.6792    0.7023  -17.2689 H   0  0  0  0  0  0  0  0  0  0  0  0
   -7.7862   -1.5783  -18.7172 H   0  0  0  0  0  0  0  0  0  0  0  0
   -7.3060   -2.6891  -21.5585 C   0  0  0  0  0  0  0  0  0  0  0  0
   -8.4829   -2.9151  -22.5064 C   0  0  2  0  0  0  0  0  0  0  0  0
   -8.3222   -4.1687  -23.3617 C   0  0  0  0  0  0  0  0  0  0  0  0
   -9.5000   -4.5511  -24.2315 C   0  0  0  0  0  0  0  0  0  0  0  0
   -9.2615   -5.0430  -25.5164 C   0  0  0  0  0  0  0  0  0  0  0  0
  -10.2864   -5.5978  -26.2720 C   0  0  0  0  0  0  0  0  0  0  0  0
  -11.5786   -5.6257  -25.7678 C   0  0  0  0  0  0  0  0  0  0  0  0
  -11.8439   -5.0634  -24.5211 C   0  0  0  0  0  0  0  0  0  0  0  0
  -10.8115   -4.5237  -23.7656 C   0  0  0  0  0  0  0  0  0  0  0  0
  -11.0579   -4.0809  -22.8039 H   0  0  0  0  0  0  0  0  0  0  0  0
  -12.8507   -5.0249  -24.1113 H   0  0  0  0  0  0  0  0  0  0  0  0
  -12.3659   -6.0709  -26.3685 H   0  0  0  0  0  0  0  0  0  0  0  0
  -10.0793   -6.0319  -27.2488 H   0  0  0  0  0  0  0  0  0  0  0  0
   -8.2573   -4.9845  -25.9361 H   0  0  0  0  0  0  0  0  0  0  0  0
   -7.4442   -4.0596  -24.0058 H   0  0  0  0  0  0  0  0  0  0  0  0
   -8.1007   -5.0110  -22.6903 H   0  0  0  0  0  0  0  0  0  0  0  0
   -9.3753   -3.0415  -21.8792 H   0  0  0  0  0  0  0  0  0  0  0  0
   -7.3953   -3.2611  -20.6333 H   0  0  0  0  0  0  0  0  0  0  0  0
   -6.3406   -2.9504  -22.0258 H   0  0  0  0  0  0  0  0  0  0  0  0
  -10.1184   -1.3403  -23.6490 C   0  0  0  0  0  0  0  0  0  0  0  0
  -11.1188   -1.2565  -22.6716 C   0  0  0  0  0  0  0  0  0  0  0  0
  -12.4548   -1.2698  -23.0256 C   0  0  0  0  0  0  0  0  0  0  0  0
  -13.6781   -1.2318  -21.7865 Cl  0  0  0  0  0  0  0  0  0  0  0  0
  -12.8506   -1.3836  -24.3561 C   0  0  0  0  0  0  0  0  0  0  0  0
  -11.8759   -1.4484  -25.3281 C   0  0  0  0  0  0  0  0  0  0  0  0
  -10.5271   -1.4138  -24.9825 C   0  0  0  0  0  0  0  0  0  0  0  0
   -9.5435   -1.6073  -26.0839 C   0  0  0  0  0  0  0  0  0  0  0  0
   -9.8851   -1.5950  -27.2679 O   0  0  0  0  0  0  0  0  0  0  0  0
  -12.1217   -1.5565  -26.3805 H   0  0  0  0  0  0  0  0  0  0  0  0
  -13.9105   -1.4646  -24.5821 H   0  0  0  0  0  0  0  0  0  0  0  0
  -10.8674   -1.1997  -21.6171 H   0  0  0  0  0  0  0  0  0  0  0  0
   -7.5093   -0.2817  -24.5436 H   0  0  0  0  0  0  0  0  0  0  0  0
   -6.7739   -1.8569  -24.2471 H   0  0  0  0  0  0  0  0  0  0  0  0
   -6.5258   -2.8826  -26.2980 H   0  0  0  0  0  0  0  0  0  0  0  0
   -7.9136   -2.9397  -27.4290 H   0  0  0  0  0  0  0  0  0  0  0  0
   -8.4904   -0.8680  -28.4860 H   0  0  0  0  0  0  0  0  0  0  0  0
   -7.6957    0.6488  -30.1257 H   0  0  0  0  0  0  0  0  0  0  0  0
   -6.0246    0.2957  -29.6405 H   0  0  0  0  0  0  0  0  0  0  0  0
   -6.9993    1.3891  -28.6575 H   0  0  0  0  0  0  0  0  0  0  0  0
  1  2  1  0
  2  3  1  0
  3  4  2  0
  3  5  1  0
  5  6  1  0
  6  7  1  0
  8  7  1  6
  8  9  1  0
  9 10  2  0
  9 11  1  0
 11 12  1  0
 12 13  2  0
 13 14  1  0
 14 15  2  0
 15 16  1  0
 16 17  2  0
 17 18  1  0
 18 19  2  0
 19 20  1  0
 20 21  2  0
 20 22  1  0
 19 23  1  0
 18 24  1  0
 17 25  1  0
 15 26  1  0
 13 27  1  0
 11 28  1  0
 28 29  1  0
 29 30  1  0
 30 31  1  0
 31 32  2  0
 32 33  1  0
 33 34  2  0
 34 35  1  0
 35 36  2  0
 36 37  1  0
 35 38  1  0
 34 39  1  0
 33 40  1  0
 32 41  1  0
 30 42  1  0
 30 43  1  0
 29 44  1  1
 28 45  1  0
 28 46  1  0
  8 47  1  0
 47 48  2  0
 48 49  1  0
 49 50  1  0
 49 51  2  0
 51 52  1  0
 52 53  2  0
 53 54  1  0
 54 55  2  0
 52 56  1  0
 51 57  1  0
 48 58  1  0
  7 59  1  0
  7 60  1  0
  5 61  1  0
  5 62  1  0
  2 63  1  0
  1 64  1  0
  1 65  1  0
  1 66  1  0
 54  6  1  0
 29  8  1  0
 36 31  1  0
 53 47  1  0
 21 12  1  0
 21 16  1  0
M  END
>  <cnnaffinities>  (43) 
[6.48624]

>  <score>  (43) 
6.48624

>  <index>  (43) 
45

>  <Smiles>  (43) 
C(N(C(=O)C(N1C([C@@]2(C(=O)N(c3c(nc(c4c(c(c(c(c34)[H])[H])[H])[H])[H])[H])C([C@@]2(C(c2c(c(c(c(c2[H])[H])[H])[H])[H])([H])[H])[H])([H])[H])c2c(c(Cl)c(c(c2C1=O)[H])[H])[H])([H])[H])([H])[H])[H])([H])([H])[H]

>  <h>  (43) 
<NA>

>  <Training>  (43) 
True

>  <Success>  (43) 
True

>  <enamine_searched>  (43) 
False

>  <enamine_id>  (43) 
nan

$$$$

     RDKit          3D

 50 54  0  0  0  0  0  0  0  0999 V2000
  -10.4491   -1.0602  -23.3641 C   0  0  0  0  0  0  0  0  0  0  0  0
   -9.0060   -1.4054  -22.9936 C   0  0  1  0  0  0  0  0  0  0  0  0
   -8.4227   -0.4740  -21.9159 C   0  0  0  0  0  0  0  0  0  0  0  0
   -7.4138   -1.2965  -21.2735 N   0  0  0  0  0  0  0  0  0  0  0  0
   -6.6009   -0.8010  -20.2279 C   0  0  0  0  0  0  0  0  0  0  0  0
   -6.9262   -1.0318  -18.9162 C   0  0  0  0  0  0  0  0  0  0  0  0
   -6.2570   -0.4918  -17.8699 N   0  0  0  0  0  0  0  0  0  0  0  0
   -5.2211    0.2651  -18.1274 C   0  0  0  0  0  0  0  0  0  0  0  0
   -4.7561    0.5574  -19.4391 C   0  0  0  0  0  0  0  0  0  0  0  0
   -3.6139    1.3675  -19.6680 C   0  0  0  0  0  0  0  0  0  0  0  0
   -3.2065    1.6273  -20.9474 C   0  0  0  0  0  0  0  0  0  0  0  0
   -3.9132    1.0858  -22.0465 C   0  0  0  0  0  0  0  0  0  0  0  0
   -5.0169    0.2930  -21.8489 C   0  0  0  0  0  0  0  0  0  0  0  0
   -5.4672    0.0157  -20.5314 C   0  0  0  0  0  0  0  0  0  0  0  0
   -5.5511   -0.1356  -22.6903 H   0  0  0  0  0  0  0  0  0  0  0  0
   -3.5736    1.2939  -23.0562 H   0  0  0  0  0  0  0  0  0  0  0  0
   -2.3307    2.2466  -21.1269 H   0  0  0  0  0  0  0  0  0  0  0  0
   -3.0796    1.7701  -18.8107 H   0  0  0  0  0  0  0  0  0  0  0  0
   -4.6918    0.6918  -17.2748 H   0  0  0  0  0  0  0  0  0  0  0  0
   -7.7712   -1.6644  -18.6527 H   0  0  0  0  0  0  0  0  0  0  0  0
   -7.5583   -2.6454  -21.5154 C   0  0  0  0  0  0  0  0  0  0  0  0
   -6.8025   -3.4965  -21.0946 O   0  0  0  0  0  0  0  0  0  0  0  0
   -8.7877   -2.8558  -22.4204 C   0  0  1  0  0  0  0  0  0  0  0  0
   -9.9849   -3.2931  -21.5404 C   0  0  0  0  0  0  0  0  0  0  0  0
  -11.1434   -3.6832  -22.3466 N   0  0  0  0  0  0  0  0  0  0  0  0
  -12.5052   -3.4996  -21.8699 C   0  0  0  0  0  0  0  0  0  0  0  0
  -13.3490   -2.6543  -22.7296 C   0  0  0  0  0  0  0  0  0  0  0  0
  -14.0594   -1.9880  -23.3556 N   0  0  0  0  0  0  0  0  0  0  0  0
  -12.5175   -3.0526  -20.8734 H   0  0  0  0  0  0  0  0  0  0  0  0
  -12.9928   -4.4743  -21.8067 H   0  0  0  0  0  0  0  0  0  0  0  0
  -10.9956   -4.5343  -23.4168 C   0  0  0  0  0  0  0  0  0  0  0  0
  -11.9489   -5.0730  -23.9622 O   0  0  0  0  0  0  0  0  0  0  0  0
   -9.5957   -4.7397  -23.9062 C   0  0  0  0  0  0  0  0  0  0  0  0
   -9.3652   -5.7531  -24.8373 C   0  0  0  0  0  0  0  0  0  0  0  0
   -8.1031   -5.9466  -25.3683 C   0  0  0  0  0  0  0  0  0  0  0  0
   -7.0796   -5.0960  -24.9658 C   0  0  0  0  0  0  0  0  0  0  0  0
   -5.8505   -5.2754  -25.4754 F   0  0  0  0  0  0  0  0  0  0  0  0
   -7.2714   -4.1067  -24.0225 C   0  0  0  0  0  0  0  0  0  0  0  0
   -8.5432   -3.9297  -23.4611 C   0  0  0  0  0  0  0  0  0  0  0  0
   -6.4161   -3.5385  -23.6752 H   0  0  0  0  0  0  0  0  0  0  0  0
   -7.9028   -6.7471  -26.0699 H   0  0  0  0  0  0  0  0  0  0  0  0
  -10.2078   -6.3680  -25.1429 H   0  0  0  0  0  0  0  0  0  0  0  0
   -9.6765   -4.1372  -20.9154 H   0  0  0  0  0  0  0  0  0  0  0  0
  -10.2276   -2.4509  -20.8801 H   0  0  0  0  0  0  0  0  0  0  0  0
   -9.2020   -0.1442  -21.2065 H   0  0  0  0  0  0  0  0  0  0  0  0
   -7.9872    0.4400  -22.3337 H   0  0  0  0  0  0  0  0  0  0  0  0
   -8.3848   -1.3460  -23.8967 H   0  0  0  0  0  0  0  0  0  0  0  0
  -10.5462   -0.0790  -23.8409 H   0  0  0  0  0  0  0  0  0  0  0  0
  -11.0811   -1.0518  -22.4683 H   0  0  0  0  0  0  0  0  0  0  0  0
  -10.8585   -1.8154  -24.0433 H   0  0  0  0  0  0  0  0  0  0  0  0
  1  2  1  0
  2  3  1  0
  3  4  1  0
  4  5  1  0
  5  6  2  0
  6  7  1  0
  7  8  2  0
  8  9  1  0
  9 10  2  0
 10 11  1  0
 11 12  2  0
 12 13  1  0
 13 14  2  0
 13 15  1  0
 12 16  1  0
 11 17  1  0
 10 18  1  0
  8 19  1  0
  6 20  1  0
  4 21  1  0
 21 22  2  0
 21 23  1  0
 23 24  1  1
 24 25  1  0
 25 26  1  0
 26 27  1  0
 27 28  3  0
 26 29  1  0
 26 30  1  0
 25 31  1  0
 31 32  2  0
 31 33  1  0
 33 34  2  0
 34 35  1  0
 35 36  2  0
 36 37  1  0
 36 38  1  0
 38 39  2  0
 38 40  1  0
 35 41  1  0
 34 42  1  0
 24 43  1  0
 24 44  1  0
  3 45  1  0
  3 46  1  0
  2 47  1  6
  1 48  1  0
  1 49  1  0
  1 50  1  0
 23  2  1  0
 39 33  1  0
 14  5  1  0
 39 23  1  0
 14  9  1  0
M  END
>  <cnnaffinities>  (44) 
[6.5097]

>  <score>  (44) 
6.5097

>  <index>  (44) 
46

>  <Smiles>  (44) 
C([C@]1(C(N(c2c(nc(c3c(c(c(c(c23)[H])[H])[H])[H])[H])[H])C(=O)[C@]21C(N(C(C#N)([H])[H])C(=O)c1c(c(c(F)c(c21)[H])[H])[H])([H])[H])([H])[H])[H])([H])([H])[H]

>  <h>  (44) 
<NA>

>  <Training>  (44) 
True

>  <Success>  (44) 
True

>  <enamine_searched>  (44) 
False

>  <enamine_id>  (44) 
nan

$$$$

     RDKit          3D

 58 63  0  0  0  0  0  0  0  0999 V2000
   -5.6677   -3.1197  -21.4146 O   0  0  0  0  0  0  0  0  0  0  0  0
   -6.7446   -2.7573  -21.8509 C   0  0  0  0  0  0  0  0  0  0  0  0
   -7.4087   -1.4847  -21.2679 C   0  0  0  0  0  0  0  0  0  0  0  0
   -6.5790   -0.8320  -20.1864 C   0  0  0  0  0  0  0  0  0  0  0  0
   -6.8740   -1.0412  -18.8683 C   0  0  0  0  0  0  0  0  0  0  0  0
   -6.1961   -0.5164  -17.8130 N   0  0  0  0  0  0  0  0  0  0  0  0
   -5.1557    0.2298  -18.0723 C   0  0  0  0  0  0  0  0  0  0  0  0
   -4.7171    0.5316  -19.3861 C   0  0  0  0  0  0  0  0  0  0  0  0
   -3.5883    1.3573  -19.6255 C   0  0  0  0  0  0  0  0  0  0  0  0
   -3.1895    1.6329  -20.9023 C   0  0  0  0  0  0  0  0  0  0  0  0
   -3.9026    1.0892  -21.9949 C   0  0  0  0  0  0  0  0  0  0  0  0
   -4.9979    0.2887  -21.7879 C   0  0  0  0  0  0  0  0  0  0  0  0
   -5.4446   -0.0128  -20.4761 C   0  0  0  0  0  0  0  0  0  0  0  0
   -5.5294   -0.1252  -22.6411 H   0  0  0  0  0  0  0  0  0  0  0  0
   -3.5778    1.3147  -23.0062 H   0  0  0  0  0  0  0  0  0  0  0  0
   -2.3289    2.2714  -21.0867 H   0  0  0  0  0  0  0  0  0  0  0  0
   -3.0538    1.7734  -18.7730 H   0  0  0  0  0  0  0  0  0  0  0  0
   -4.6002    0.6293  -17.2183 H   0  0  0  0  0  0  0  0  0  0  0  0
   -7.7185   -1.6708  -18.5859 H   0  0  0  0  0  0  0  0  0  0  0  0
   -7.6192   -0.7649  -22.0688 H   0  0  0  0  0  0  0  0  0  0  0  0
   -8.3812   -1.7676  -20.8428 H   0  0  0  0  0  0  0  0  0  0  0  0
   -7.3993   -3.4602  -22.8605 N   0  0  0  0  0  0  0  0  0  0  0  0
   -8.6023   -2.9890  -23.5416 C   0  0  0  0  0  0  0  0  0  0  0  0
   -8.3476   -2.3840  -24.9106 C   0  0  0  0  0  0  0  0  0  0  0  0
   -9.2631   -2.5619  -25.9473 C   0  0  0  0  0  0  0  0  0  0  0  0
   -9.0357   -1.9930  -27.1967 C   0  0  0  0  0  0  0  0  0  0  0  0
   -7.8964   -1.2339  -27.4314 C   0  0  0  0  0  0  0  0  0  0  0  0
   -6.9972   -1.0549  -26.3898 C   0  0  0  0  0  0  0  0  0  0  0  0
   -5.5660   -0.0983  -26.6563 Cl  0  0  0  0  0  0  0  0  0  0  0  0
   -7.2068   -1.6179  -25.1395 C   0  0  0  0  0  0  0  0  0  0  0  0
   -6.4806   -1.4429  -24.3494 H   0  0  0  0  0  0  0  0  0  0  0  0
   -7.7119   -0.7842  -28.4019 H   0  0  0  0  0  0  0  0  0  0  0  0
   -9.7535   -2.1406  -27.9981 H   0  0  0  0  0  0  0  0  0  0  0  0
  -10.1618   -3.1537  -25.7821 H   0  0  0  0  0  0  0  0  0  0  0  0
   -9.2836   -3.8366  -23.6453 H   0  0  0  0  0  0  0  0  0  0  0  0
   -9.1187   -2.2704  -22.9016 H   0  0  0  0  0  0  0  0  0  0  0  0
   -6.7531   -4.6561  -23.3904 C   0  0  2  0  0  0  0  0  0  0  0  0
   -7.4395   -5.4806  -24.5062 C   0  0  0  0  0  0  0  0  0  0  0  0
   -6.4076   -6.5885  -24.6927 N   0  0  1  0  0  4  0  0  0  0  0  0
   -5.9236   -6.8168  -26.0705 C   0  0  0  0  0  0  0  0  0  0  0  0
   -5.1587   -8.0734  -26.3479 C   0  0  0  0  0  0  0  0  0  0  0  0
   -4.4593   -6.7492  -26.4094 C   0  0  0  0  0  0  0  0  0  0  0  0
   -4.1555   -6.3822  -27.3823 H   0  0  0  0  0  0  0  0  0  0  0  0
   -3.7385   -6.5534  -25.6257 H   0  0  0  0  0  0  0  0  0  0  0  0
   -5.3528   -8.5944  -27.2771 H   0  0  0  0  0  0  0  0  0  0  0  0
   -4.9653   -8.7073  -25.4887 H   0  0  0  0  0  0  0  0  0  0  0  0
   -6.6215   -6.5047  -26.8386 H   0  0  0  0  0  0  0  0  0  0  0  0
   -5.4029   -6.1359  -23.6504 C   0  0  2  0  0  0  0  0  0  0  0  0
   -6.3131   -5.8156  -22.4705 C   0  0  0  0  0  0  0  0  0  0  0  0
   -7.0737   -6.5667  -22.2282 H   0  0  0  0  0  0  0  0  0  0  0  0
   -5.7695   -5.4947  -21.5900 H   0  0  0  0  0  0  0  0  0  0  0  0
   -5.3056   -4.6397  -23.9516 C   0  0  0  0  0  0  0  0  0  0  0  0
   -5.2132   -4.3610  -25.0105 H   0  0  0  0  0  0  0  0  0  0  0  0
   -4.5932   -4.1216  -23.3230 H   0  0  0  0  0  0  0  0  0  0  0  0
   -4.5404   -6.7832  -23.5345 H   0  0  0  0  0  0  0  0  0  0  0  0
   -6.8206   -7.4955  -24.4120 H   0  0  0  0  0  0  0  0  0  0  0  0
   -7.5442   -4.9537  -25.4515 H   0  0  0  0  0  0  0  0  0  0  0  0
   -8.3923   -5.9247  -24.2117 H   0  0  0  0  0  0  0  0  0  0  0  0
  1  2  2  0
  2  3  1  0
  3  4  1  0
  4  5  2  0
  5  6  1  0
  6  7  2  0
  7  8  1  0
  8  9  2  0
  9 10  1  0
 10 11  2  0
 11 12  1  0
 12 13  2  0
 12 14  1  0
 11 15  1  0
 10 16  1  0
  9 17  1  0
  7 18  1  0
  5 19  1  0
  3 20  1  0
  3 21  1  0
  2 22  1  0
 22 23  1  0
 23 24  1  0
 24 25  2  0
 25 26  1  0
 26 27  2  0
 27 28  1  0
 28 29  1  0
 28 30  2  0
 30 31  1  0
 27 32  1  0
 26 33  1  0
 25 34  1  0
 23 35  1  0
 23 36  1  0
 37 22  1  1
 37 38  1  0
 38 39  1  0
 39 40  1  0
 40 41  1  0
 41 42  1  0
 42 43  1  0
 42 44  1  0
 41 45  1  0
 41 46  1  0
 40 47  1  0
 39 48  1  0
 48 49  1  0
 49 50  1  0
 49 51  1  0
 48 52  1  0
 52 53  1  0
 52 54  1  0
 48 55  1  1
 39 56  1  1
 38 57  1  0
 38 58  1  0
 13  4  1  0
 30 24  1  0
 49 37  1  0
 13  8  1  0
 52 37  1  0
 42 40  1  0
M  CHG  1  39   1
M  END
>  <cnnaffinities>  (45) 
[6.01757, 5.86596, 6.07801, 5.95949, 6.2907, 6.35482]

>  <score>  (45) 
6.01757

>  <index>  (45) 
47

>  <Smiles>  (45) 
O=C(C(c1c(nc(c2c(c(c(c(c12)[H])[H])[H])[H])[H])[H])([H])[H])N(C(c1c(c(c(c(Cl)c1[H])[H])[H])[H])([H])[H])[C@]12C([N@@+](C3(C(C3([H])[H])([H])[H])[H])([C@](C1([H])[H])(C2([H])[H])[H])[H])([H])[H]

>  <h>  (45) 
<NA>

>  <Training>  (45) 
True

>  <Success>  (45) 
True

>  <enamine_searched>  (45) 
False

>  <enamine_id>  (45) 
nan

$$$$

     RDKit          3D

 46 48  0  0  0  0  0  0  0  0999 V2000
  -13.1359   -3.5930  -22.1116 C   0  0  0  0  0  0  0  0  0  0  0  0
  -13.1571   -2.9113  -23.4837 C   0  0  0  0  0  0  0  0  0  0  0  0
  -14.5134   -2.2395  -23.7617 C   0  0  0  0  0  0  0  0  0  0  0  0
  -15.3143   -2.9728  -23.9124 H   0  0  0  0  0  0  0  0  0  0  0  0
  -14.4592   -1.6039  -24.6566 H   0  0  0  0  0  0  0  0  0  0  0  0
  -14.8080   -1.5919  -22.9270 H   0  0  0  0  0  0  0  0  0  0  0  0
  -12.0250   -1.8866  -23.7662 C   0  0  0  0  0  0  0  0  0  0  0  0
  -11.9292   -0.7443  -22.7438 C   0  0  0  0  0  0  0  0  0  0  0  0
  -10.6152    0.0259  -22.8888 C   0  0  0  0  0  0  0  0  0  0  0  0
   -9.5238   -0.8674  -22.4916 N   0  0  0  0  0  0  0  0  0  0  0  0
   -8.5508   -0.4169  -21.6537 C   0  0  0  0  0  0  0  0  0  0  0  0
   -8.5323    0.7329  -21.2293 O   0  0  0  0  0  0  0  0  0  0  0  0
   -7.4572   -1.4259  -21.2623 C   0  0  0  0  0  0  0  0  0  0  0  0
   -6.5798   -0.8429  -20.2058 C   0  0  0  0  0  0  0  0  0  0  0  0
   -6.9426   -0.9904  -18.8919 C   0  0  0  0  0  0  0  0  0  0  0  0
   -6.2922   -0.4368  -17.8403 N   0  0  0  0  0  0  0  0  0  0  0  0
   -5.2344    0.2850  -18.1134 C   0  0  0  0  0  0  0  0  0  0  0  0
   -4.7554    0.5403  -19.4276 C   0  0  0  0  0  0  0  0  0  0  0  0
   -3.6184    1.3457  -19.6739 C   0  0  0  0  0  0  0  0  0  0  0  0
   -3.2265    1.6243  -20.9566 C   0  0  0  0  0  0  0  0  0  0  0  0
   -3.9635    1.1145  -22.0482 C   0  0  0  0  0  0  0  0  0  0  0  0
   -5.0635    0.3238  -21.8365 C   0  0  0  0  0  0  0  0  0  0  0  0
   -5.4727   -0.0045  -20.5152 C   0  0  0  0  0  0  0  0  0  0  0  0
   -5.6392   -0.0403  -22.6823 H   0  0  0  0  0  0  0  0  0  0  0  0
   -3.6569    1.3629  -23.0604 H   0  0  0  0  0  0  0  0  0  0  0  0
   -2.3581    2.2473  -21.1392 H   0  0  0  0  0  0  0  0  0  0  0  0
   -3.0811    1.7510  -18.8237 H   0  0  0  0  0  0  0  0  0  0  0  0
   -4.7102    0.7268  -17.2666 H   0  0  0  0  0  0  0  0  0  0  0  0
   -7.8275   -1.5758  -18.6415 H   0  0  0  0  0  0  0  0  0  0  0  0
   -6.8921   -1.7285  -22.1563 H   0  0  0  0  0  0  0  0  0  0  0  0
   -7.9358   -2.3347  -20.8687 H   0  0  0  0  0  0  0  0  0  0  0  0
   -9.7329   -2.2923  -22.7184 C   0  0  0  0  0  0  0  0  0  0  0  0
  -10.6109   -2.4682  -23.9486 C   0  0  0  0  0  0  0  0  0  0  0  0
  -10.6343   -3.5122  -24.2649 H   0  0  0  0  0  0  0  0  0  0  0  0
  -10.1271   -1.9234  -24.7647 H   0  0  0  0  0  0  0  0  0  0  0  0
   -8.7681   -2.7806  -22.8760 H   0  0  0  0  0  0  0  0  0  0  0  0
  -10.2100   -2.7708  -21.8465 H   0  0  0  0  0  0  0  0  0  0  0  0
  -10.4689    0.3598  -23.9270 H   0  0  0  0  0  0  0  0  0  0  0  0
  -10.5503    0.9156  -22.2547 H   0  0  0  0  0  0  0  0  0  0  0  0
  -12.8094   -0.1073  -22.8162 H   0  0  0  0  0  0  0  0  0  0  0  0
  -11.9169   -1.1537  -21.7333 H   0  0  0  0  0  0  0  0  0  0  0  0
  -12.2977   -1.4347  -24.7344 H   0  0  0  0  0  0  0  0  0  0  0  0
  -13.0094   -3.7192  -24.2143 H   0  0  0  0  0  0  0  0  0  0  0  0
  -13.9248   -4.3560  -22.0542 H   0  0  0  0  0  0  0  0  0  0  0  0
  -13.3214   -2.8837  -21.2989 H   0  0  0  0  0  0  0  0  0  0  0  0
  -12.1805   -4.0940  -21.9096 H   0  0  0  0  0  0  0  0  0  0  0  0
  1  2  1  0
  2  3  1  0
  3  4  1  0
  3  5  1  0
  3  6  1  0
  2  7  1  0
  7  8  1  0
  8  9  1  0
  9 10  1  0
 10 11  1  0
 11 12  2  0
 11 13  1  0
 13 14  1  0
 14 15  2  0
 15 16  1  0
 16 17  2  0
 17 18  1  0
 18 19  2  0
 19 20  1  0
 20 21  2  0
 21 22  1  0
 22 23  2  0
 22 24  1  0
 21 25  1  0
 20 26  1  0
 19 27  1  0
 17 28  1  0
 15 29  1  0
 13 30  1  0
 13 31  1  0
 10 32  1  0
 32 33  1  0
 33 34  1  0
 33 35  1  0
 32 36  1  0
 32 37  1  0
  9 38  1  0
  9 39  1  0
  8 40  1  0
  8 41  1  0
  7 42  1  0
  2 43  1  0
  1 44  1  0
  1 45  1  0
  1 46  1  0
 33  7  1  0
 23 14  1  0
 23 18  1  0
M  END
>  <cnnaffinities>  (46) 
[5.09223, 5.08976, 5.08836, 5.19758, 5.09905, 5.0986, 5.09864]

>  <score>  (46) 
5.09223

>  <index>  (46) 
48

>  <Smiles>  (46) 
C(C(C([H])([H])[H])(C1(C(C(N(C(=O)C(c2c(nc(c3c(c(c(c(c23)[H])[H])[H])[H])[H])[H])([H])[H])C(C1([H])[H])([H])[H])([H])[H])([H])[H])[H])[H])([H])([H])[H]

>  <h>  (46) 
<NA>

>  <Training>  (46) 
True

>  <Success>  (46) 
True

>  <enamine_searched>  (46) 
False

>  <enamine_id>  (46) 
nan

$$$$

     RDKit          3D

 67 72  0  0  0  0  0  0  0  0999 V2000
   -7.7618   -6.0355  -26.7659 C   0  0  0  0  0  0  0  0  0  0  0  0
   -8.0715   -4.6336  -26.9893 N   0  0  0  0  0  0  0  0  0  0  0  0
   -7.1286   -3.6998  -26.7220 C   0  0  0  0  0  0  0  0  0  0  0  0
   -6.0041   -4.0030  -26.3479 O   0  0  0  0  0  0  0  0  0  0  0  0
   -7.5840   -2.2400  -26.8568 C   0  0  0  0  0  0  0  0  0  0  0  0
   -8.4411   -1.8445  -25.7447 N   0  0  0  0  0  0  0  0  0  0  0  0
   -7.8712   -1.2801  -24.5197 C   0  0  0  0  0  0  0  0  0  0  0  0
   -8.7286   -1.5332  -23.2361 C   0  0  2  0  0  0  0  0  0  0  0  0
   -8.1817   -0.5807  -22.1589 C   0  0  0  0  0  0  0  0  0  0  0  0
   -8.3277    0.6195  -22.0835 O   0  0  0  0  0  0  0  0  0  0  0  0
   -7.3820   -1.3174  -21.3058 N   0  0  0  0  0  0  0  0  0  0  0  0
   -6.6119   -0.7460  -20.2681 C   0  0  0  0  0  0  0  0  0  0  0  0
   -6.9323   -1.0031  -18.9595 C   0  0  0  0  0  0  0  0  0  0  0  0
   -6.2676   -0.4981  -17.8944 N   0  0  0  0  0  0  0  0  0  0  0  0
   -5.2185    0.2477  -18.1378 C   0  0  0  0  0  0  0  0  0  0  0  0
   -4.7457    0.5512  -19.4450 C   0  0  0  0  0  0  0  0  0  0  0  0
   -3.5966    1.3578  -19.6527 C   0  0  0  0  0  0  0  0  0  0  0  0
   -3.1603    1.6253  -20.9204 C   0  0  0  0  0  0  0  0  0  0  0  0
   -3.8419    1.0889  -22.0371 C   0  0  0  0  0  0  0  0  0  0  0  0
   -4.9541    0.3051  -21.8629 C   0  0  0  0  0  0  0  0  0  0  0  0
   -5.4487    0.0353  -20.5551 C   0  0  0  0  0  0  0  0  0  0  0  0
   -5.4705   -0.1079  -22.7260 H   0  0  0  0  0  0  0  0  0  0  0  0
   -3.4857    1.3070  -23.0390 H   0  0  0  0  0  0  0  0  0  0  0  0
   -2.2906    2.2574  -21.0776 H   0  0  0  0  0  0  0  0  0  0  0  0
   -3.0848    1.7587  -18.7823 H   0  0  0  0  0  0  0  0  0  0  0  0
   -4.6858    0.6485  -17.2760 H   0  0  0  0  0  0  0  0  0  0  0  0
   -7.7870   -1.6392  -18.7299 H   0  0  0  0  0  0  0  0  0  0  0  0
   -7.3402   -2.7342  -21.5814 C   0  0  0  0  0  0  0  0  0  0  0  0
   -8.5007   -2.9187  -22.5520 C   0  0  2  0  0  0  0  0  0  0  0  0
   -8.3277   -4.0898  -23.5099 C   0  0  0  0  0  0  0  0  0  0  0  0
   -8.2840   -5.3490  -22.8190 N   0  0  0  0  0  0  0  0  0  0  0  0
   -7.1445   -6.0481  -22.5381 C   0  0  0  0  0  0  0  0  0  0  0  0
   -6.9577   -7.0837  -21.6700 C   0  0  0  0  0  0  0  0  0  0  0  0
   -5.6998   -7.6380  -21.6332 N   0  0  0  0  0  0  0  0  0  0  0  0
   -4.9084   -7.0365  -22.4613 C   0  0  0  0  0  0  0  0  0  0  0  0
   -3.4714   -7.3730  -22.6780 C   0  0  0  0  0  0  0  0  0  0  0  0
   -3.2660   -7.6344  -23.7220 H   0  0  0  0  0  0  0  0  0  0  0  0
   -3.2119   -8.2239  -22.0500 H   0  0  0  0  0  0  0  0  0  0  0  0
   -2.8390   -6.5271  -22.3977 H   0  0  0  0  0  0  0  0  0  0  0  0
   -5.6451   -5.7168  -23.3515 S   0  0  0  0  0  0  0  0  0  0  0  0
   -7.7206   -7.4657  -21.0122 H   0  0  0  0  0  0  0  0  0  0  0  0
   -9.1560   -5.7134  -22.4767 H   0  0  0  0  0  0  0  0  0  0  0  0
   -7.4047   -3.9593  -24.0824 H   0  0  0  0  0  0  0  0  0  0  0  0
   -9.1846   -4.0947  -24.1901 H   0  0  0  0  0  0  0  0  0  0  0  0
   -9.3957   -3.1048  -21.9414 H   0  0  0  0  0  0  0  0  0  0  0  0
   -6.3786   -3.0562  -22.0084 H   0  0  0  0  0  0  0  0  0  0  0  0
   -7.4733   -3.2830  -20.6508 H   0  0  0  0  0  0  0  0  0  0  0  0
  -10.1988   -1.3450  -23.5473 C   0  0  0  0  0  0  0  0  0  0  0  0
  -11.1557   -1.2024  -22.5246 C   0  0  0  0  0  0  0  0  0  0  0  0
  -12.5087   -1.2195  -22.8337 C   0  0  0  0  0  0  0  0  0  0  0  0
  -13.7070   -1.3419  -21.5802 Cl  0  0  0  0  0  0  0  0  0  0  0  0
  -12.9548   -1.2494  -24.1542 C   0  0  0  0  0  0  0  0  0  0  0  0
  -12.0195   -1.4180  -25.1539 C   0  0  0  0  0  0  0  0  0  0  0  0
  -10.6675   -1.5164  -24.8520 C   0  0  0  0  0  0  0  0  0  0  0  0
   -9.7796   -1.9327  -25.9683 C   0  0  0  0  0  0  0  0  0  0  0  0
  -10.2401   -2.3789  -27.0197 O   0  0  0  0  0  0  0  0  0  0  0  0
  -12.2906   -1.5337  -26.1984 H   0  0  0  0  0  0  0  0  0  0  0  0
  -14.0166   -1.1849  -24.3670 H   0  0  0  0  0  0  0  0  0  0  0  0
  -10.8782   -1.0782  -21.4842 H   0  0  0  0  0  0  0  0  0  0  0  0
   -7.7443   -0.1954  -24.6334 H   0  0  0  0  0  0  0  0  0  0  0  0
   -6.8673   -1.7053  -24.3784 H   0  0  0  0  0  0  0  0  0  0  0  0
   -6.7026   -1.5998  -26.9032 H   0  0  0  0  0  0  0  0  0  0  0  0
   -8.1730   -2.1179  -27.7730 H   0  0  0  0  0  0  0  0  0  0  0  0
   -9.0075   -4.3355  -27.2263 H   0  0  0  0  0  0  0  0  0  0  0  0
   -6.9347   -6.3471  -27.4133 H   0  0  0  0  0  0  0  0  0  0  0  0
   -7.4579   -6.2030  -25.7226 H   0  0  0  0  0  0  0  0  0  0  0  0
   -8.6440   -6.6367  -26.9968 H   0  0  0  0  0  0  0  0  0  0  0  0
  1  2  1  0
  2  3  1  0
  3  4  2  0
  3  5  1  0
  5  6  1  0
  6  7  1  0
  8  7  1  6
  8  9  1  0
  9 10  2  0
  9 11  1  0
 11 12  1  0
 12 13  2  0
 13 14  1  0
 14 15  2  0
 15 16  1  0
 16 17  2  0
 17 18  1  0
 18 19  2  0
 19 20  1  0
 20 21  2  0
 20 22  1  0
 19 23  1  0
 18 24  1  0
 17 25  1  0
 15 26  1  0
 13 27  1  0
 11 28  1  0
 28 29  1  0
 29 30  1  0
 30 31  1  0
 31 32  1  0
 32 33  2  0
 33 34  1  0
 34 35  2  0
 35 36  1  0
 36 37  1  0
 36 38  1  0
 36 39  1  0
 35 40  1  0
 33 41  1  0
 31 42  1  0
 30 43  1  0
 30 44  1  0
 29 45  1  1
 28 46  1  0
 28 47  1  0
  8 48  1  0
 48 49  2  0
 49 50  1  0
 50 51  1  0
 50 52  2  0
 52 53  1  0
 53 54  2  0
 54 55  1  0
 55 56  2  0
 53 57  1  0
 52 58  1  0
 49 59  1  0
  7 60  1  0
  7 61  1  0
  5 62  1  0
  5 63  1  0
  2 64  1  0
  1 65  1  0
  1 66  1  0
  1 67  1  0
 55  6  1  0
 29  8  1  0
 40 32  1  0
 54 48  1  0
 21 12  1  0
 21 16  1  0
M  END
>  <cnnaffinities>  (47) 
[6.78657]

>  <score>  (47) 
6.78657

>  <index>  (47) 
49

>  <Smiles>  (47) 
C(N(C(=O)C(N1C([C@@]2(C(=O)N(c3c(nc(c4c(c(c(c(c34)[H])[H])[H])[H])[H])[H])C([C@@]2(C(N(c2c(nc(C([H])([H])[H])s2)[H])[H])([H])[H])[H])([H])[H])c2c(c(Cl)c(c(c2C1=O)[H])[H])[H])([H])[H])([H])[H])[H])([H])([H])[H]

>  <h>  (47) 
<NA>

>  <Training>  (47) 
True

>  <Success>  (47) 
True

>  <enamine_searched>  (47) 
False

>  <enamine_id>  (47) 
nan

$$$$

     RDKit          3D

 66 70  0  0  0  0  0  0  0  0999 V2000
   -7.5093    3.0697  -21.8560 C   0  0  0  0  0  0  0  0  0  0  0  0
   -8.6628    2.5395  -22.5576 N   0  0  0  0  0  0  0  0  0  0  0  0
   -8.4302    1.7120  -23.6160 C   0  0  0  0  0  0  0  0  0  0  0  0
   -7.2970    1.3856  -23.9585 O   0  0  0  0  0  0  0  0  0  0  0  0
   -9.6559    1.2181  -24.3662 C   0  0  0  0  0  0  0  0  0  0  0  0
  -10.1077   -0.0456  -23.8380 N   0  0  0  0  0  0  0  0  0  0  0  0
   -9.2414   -1.2110  -23.8709 C   0  0  0  0  0  0  0  0  0  0  0  0
   -9.3108   -1.9619  -22.5179 C   0  0  2  0  0  0  0  0  0  0  0  0
   -8.7088   -1.0186  -21.4385 C   0  0  0  0  0  0  0  0  0  0  0  0
   -9.2388   -0.0406  -20.9468 O   0  0  0  0  0  0  0  0  0  0  0  0
   -7.4149   -1.4282  -21.1771 N   0  0  0  0  0  0  0  0  0  0  0  0
   -6.6207   -0.8156  -20.1793 C   0  0  0  0  0  0  0  0  0  0  0  0
   -6.9488   -0.9984  -18.8580 C   0  0  0  0  0  0  0  0  0  0  0  0
   -6.2528   -0.4780  -17.8244 N   0  0  0  0  0  0  0  0  0  0  0  0
   -5.1926    0.2364  -18.1049 C   0  0  0  0  0  0  0  0  0  0  0  0
   -4.7468    0.5164  -19.4246 C   0  0  0  0  0  0  0  0  0  0  0  0
   -3.6205    1.3452  -19.6647 C   0  0  0  0  0  0  0  0  0  0  0  0
   -3.2457    1.6493  -20.9439 C   0  0  0  0  0  0  0  0  0  0  0  0
   -3.9790    1.1402  -22.0371 C   0  0  0  0  0  0  0  0  0  0  0  0
   -5.0754    0.3307  -21.8306 C   0  0  0  0  0  0  0  0  0  0  0  0
   -5.4810   -0.0170  -20.5117 C   0  0  0  0  0  0  0  0  0  0  0  0
   -5.6704    0.0271  -22.6857 H   0  0  0  0  0  0  0  0  0  0  0  0
   -3.6857    1.4043  -23.0489 H   0  0  0  0  0  0  0  0  0  0  0  0
   -2.3950    2.3011  -21.1228 H   0  0  0  0  0  0  0  0  0  0  0  0
   -3.0858    1.7461  -18.8079 H   0  0  0  0  0  0  0  0  0  0  0  0
   -4.6302    0.6446  -17.2650 H   0  0  0  0  0  0  0  0  0  0  0  0
   -7.8118   -1.6093  -18.6037 H   0  0  0  0  0  0  0  0  0  0  0  0
   -6.9918   -2.5642  -21.9731 C   0  0  0  0  0  0  0  0  0  0  0  0
   -8.3308   -3.1623  -22.4402 C   0  0  2  0  0  0  0  0  0  0  0  0
   -8.2055   -4.0029  -23.7101 C   0  0  0  0  0  0  0  0  0  0  0  0
   -7.4320   -5.1525  -23.4652 O   0  0  0  0  0  0  0  0  0  0  0  0
   -6.1563   -5.2208  -24.0883 C   0  0  0  0  0  0  0  0  0  0  0  0
   -6.2647   -5.7361  -25.5183 C   0  0  0  0  0  0  0  0  0  0  0  0
   -6.8724   -5.0754  -26.1451 H   0  0  0  0  0  0  0  0  0  0  0  0
   -5.2699   -5.8104  -25.9693 H   0  0  0  0  0  0  0  0  0  0  0  0
   -6.7245   -6.7291  -25.5268 H   0  0  0  0  0  0  0  0  0  0  0  0
   -5.3284   -6.1351  -23.2040 C   0  0  0  0  0  0  0  0  0  0  0  0
   -5.7842   -7.1303  -23.1901 H   0  0  0  0  0  0  0  0  0  0  0  0
   -5.3205   -5.7466  -22.1810 H   0  0  0  0  0  0  0  0  0  0  0  0
   -4.2957   -6.2217  -23.5585 H   0  0  0  0  0  0  0  0  0  0  0  0
   -5.7052   -4.2154  -24.1046 H   0  0  0  0  0  0  0  0  0  0  0  0
   -7.7649   -3.3909  -24.5152 H   0  0  0  0  0  0  0  0  0  0  0  0
   -9.2053   -4.3213  -24.0400 H   0  0  0  0  0  0  0  0  0  0  0  0
   -8.6594   -3.8251  -21.6347 H   0  0  0  0  0  0  0  0  0  0  0  0
   -6.3768   -2.2502  -22.8329 H   0  0  0  0  0  0  0  0  0  0  0  0
   -6.4003   -3.2656  -21.3743 H   0  0  0  0  0  0  0  0  0  0  0  0
  -10.7833   -2.2792  -22.2904 C   0  0  0  0  0  0  0  0  0  0  0  0
  -11.2304   -3.3974  -21.5766 C   0  0  0  0  0  0  0  0  0  0  0  0
  -12.5566   -3.4704  -21.1848 C   0  0  0  0  0  0  0  0  0  0  0  0
  -12.9300   -4.3967  -20.2877 F   0  0  0  0  0  0  0  0  0  0  0  0
  -13.5310   -2.5841  -21.6177 C   0  0  0  0  0  0  0  0  0  0  0  0
  -13.1163   -1.5420  -22.4135 C   0  0  0  0  0  0  0  0  0  0  0  0
  -11.7684   -1.3738  -22.7174 C   0  0  0  0  0  0  0  0  0  0  0  0
  -11.4136   -0.1384  -23.4638 C   0  0  0  0  0  0  0  0  0  0  0  0
  -12.2386    0.7368  -23.6953 O   0  0  0  0  0  0  0  0  0  0  0  0
  -13.8173   -0.8145  -22.8004 H   0  0  0  0  0  0  0  0  0  0  0  0
  -14.5629   -2.7176  -21.3108 H   0  0  0  0  0  0  0  0  0  0  0  0
  -10.5666   -4.1934  -21.2627 H   0  0  0  0  0  0  0  0  0  0  0  0
   -9.5643   -1.8865  -24.6749 H   0  0  0  0  0  0  0  0  0  0  0  0
   -8.2217   -0.8767  -24.0788 H   0  0  0  0  0  0  0  0  0  0  0  0
  -10.4849    1.9172  -24.2377 H   0  0  0  0  0  0  0  0  0  0  0  0
   -9.4189    1.1228  -25.4335 H   0  0  0  0  0  0  0  0  0  0  0  0
   -9.5154    2.4440  -22.0112 H   0  0  0  0  0  0  0  0  0  0  0  0
   -6.8915    2.2647  -21.4410 H   0  0  0  0  0  0  0  0  0  0  0  0
   -7.8385    3.7375  -21.0580 H   0  0  0  0  0  0  0  0  0  0  0  0
   -6.8933    3.6701  -22.5289 H   0  0  0  0  0  0  0  0  0  0  0  0
  1  2  1  0
  2  3  1  0
  3  4  2  0
  3  5  1  0
  5  6  1  0
  6  7  1  0
  8  7  1  6
  8  9  1  0
  9 10  2  0
  9 11  1  0
 11 12  1  0
 12 13  2  0
 13 14  1  0
 14 15  2  0
 15 16  1  0
 16 17  2  0
 17 18  1  0
 18 19  2  0
 19 20  1  0
 20 21  2  0
 20 22  1  0
 19 23  1  0
 18 24  1  0
 17 25  1  0
 15 26  1  0
 13 27  1  0
 11 28  1  0
 28 29  1  0
 29 30  1  0
 30 31  1  0
 31 32  1  0
 32 33  1  0
 33 34  1  0
 33 35  1  0
 33 36  1  0
 32 37  1  0
 37 38  1  0
 37 39  1  0
 37 40  1  0
 32 41  1  0
 30 42  1  0
 30 43  1  0
 29 44  1  1
 28 45  1  0
 28 46  1  0
  8 47  1  0
 47 48  2  0
 48 49  1  0
 49 50  1  0
 49 51  2  0
 51 52  1  0
 52 53  2  0
 53 54  1  0
 54 55  2  0
 52 56  1  0
 51 57  1  0
 48 58  1  0
  7 59  1  0
  7 60  1  0
  5 61  1  0
  5 62  1  0
  2 63  1  0
  1 64  1  0
  1 65  1  0
  1 66  1  0
 54  6  1  0
 29  8  1  0
 53 47  1  0
 21 12  1  0
 21 16  1  0
M  END
>  <cnnaffinities>  (48) 
[6.83071, 6.89834, 6.63555, 6.87872]

>  <score>  (48) 
6.83071

>  <index>  (48) 
50

>  <Smiles>  (48) 
C(N(C(=O)C(N1C([C@@]2(C(=O)N(c3c(nc(c4c(c(c(c(c34)[H])[H])[H])[H])[H])[H])C([C@@]2(C(OC(C([H])([H])[H])(C([H])([H])[H])[H])([H])[H])[H])([H])[H])c2c(c(F)c(c(c2C1=O)[H])[H])[H])([H])[H])([H])[H])[H])([H])([H])[H]

>  <h>  (48) 
<NA>

>  <Training>  (48) 
True

>  <Success>  (48) 
True

>  <enamine_searched>  (48) 
False

>  <enamine_id>  (48) 
nan

$$$$

     RDKit          3D

 50 52  0  0  0  0  0  0  0  0999 V2000
   -7.6745   -3.8227  -26.4574 C   0  0  0  0  0  0  0  0  0  0  0  0
   -6.8825   -3.4740  -25.4478 C   0  0  0  0  0  0  0  0  0  0  0  0
   -7.1293   -3.9083  -24.0219 C   0  0  0  0  0  0  0  0  0  0  0  0
   -7.5559   -2.7983  -23.1783 N   0  0  0  0  0  0  0  0  0  0  0  0
   -6.6772   -2.3437  -22.2109 C   0  0  0  0  0  0  0  0  0  0  0  0
   -5.5054   -2.6958  -22.1631 O   0  0  0  0  0  0  0  0  0  0  0  0
   -7.2493   -1.4575  -21.3260 N   0  0  0  0  0  0  0  0  0  0  0  0
   -6.5260   -0.8708  -20.2730 C   0  0  0  0  0  0  0  0  0  0  0  0
   -6.9134   -1.0525  -18.9725 C   0  0  0  0  0  0  0  0  0  0  0  0
   -6.2732   -0.5222  -17.9043 N   0  0  0  0  0  0  0  0  0  0  0  0
   -5.2108    0.2086  -18.1396 C   0  0  0  0  0  0  0  0  0  0  0  0
   -4.7213    0.4983  -19.4427 C   0  0  0  0  0  0  0  0  0  0  0  0
   -3.6019    1.3443  -19.6602 C   0  0  0  0  0  0  0  0  0  0  0  0
   -3.2134    1.6677  -20.9323 C   0  0  0  0  0  0  0  0  0  0  0  0
   -3.9217    1.1605  -22.0441 C   0  0  0  0  0  0  0  0  0  0  0  0
   -4.9911    0.3278  -21.8618 C   0  0  0  0  0  0  0  0  0  0  0  0
   -5.4065   -0.0403  -20.5511 C   0  0  0  0  0  0  0  0  0  0  0  0
   -5.5356   -0.0542  -22.7187 H   0  0  0  0  0  0  0  0  0  0  0  0
   -3.6131    1.4382  -23.0491 H   0  0  0  0  0  0  0  0  0  0  0  0
   -2.3798    2.3427  -21.0898 H   0  0  0  0  0  0  0  0  0  0  0  0
   -3.0798    1.7467  -18.7965 H   0  0  0  0  0  0  0  0  0  0  0  0
   -4.6908    0.6187  -17.2738 H   0  0  0  0  0  0  0  0  0  0  0  0
   -7.7878   -1.6636  -18.7542 H   0  0  0  0  0  0  0  0  0  0  0  0
   -8.2596   -1.4377  -21.2629 H   0  0  0  0  0  0  0  0  0  0  0  0
   -8.7366   -2.0877  -23.5577 C   0  0  0  0  0  0  0  0  0  0  0  0
   -8.6918   -0.7373  -23.9143 C   0  0  0  0  0  0  0  0  0  0  0  0
   -9.8462   -0.0780  -24.3166 C   0  0  0  0  0  0  0  0  0  0  0  0
  -11.0731   -0.7286  -24.3050 C   0  0  0  0  0  0  0  0  0  0  0  0
  -11.1085   -2.0615  -23.9143 C   0  0  0  0  0  0  0  0  0  0  0  0
  -12.6463   -2.8675  -23.8086 Cl  0  0  0  0  0  0  0  0  0  0  0  0
   -9.9495   -2.7680  -23.6137 C   0  0  0  0  0  0  0  0  0  0  0  0
   -9.9743   -3.8385  -23.4279 H   0  0  0  0  0  0  0  0  0  0  0  0
  -11.9790   -0.2241  -24.6266 H   0  0  0  0  0  0  0  0  0  0  0  0
   -9.7944    0.9567  -24.6400 H   0  0  0  0  0  0  0  0  0  0  0  0
   -7.7520   -0.1958  -23.8671 H   0  0  0  0  0  0  0  0  0  0  0  0
   -7.9176   -4.6694  -24.0077 H   0  0  0  0  0  0  0  0  0  0  0  0
   -6.2415   -4.3421  -23.5543 H   0  0  0  0  0  0  0  0  0  0  0  0
   -5.7973   -2.4950  -25.7994 C   0  0  0  0  0  0  0  0  0  0  0  0
   -5.8677   -1.8318  -26.8307 O   0  0  0  0  0  0  0  0  0  0  0  0
   -4.7389   -2.4093  -24.9649 N   0  0  0  0  0  0  0  0  0  0  0  0
   -3.8368   -1.2927  -25.1700 C   0  0  0  0  0  0  0  0  0  0  0  0
   -2.6946   -1.4246  -24.1870 C   0  0  0  0  0  0  0  0  0  0  0  0
   -2.0879   -0.5191  -24.1380 H   0  0  0  0  0  0  0  0  0  0  0  0
   -3.1315   -1.5847  -23.1871 H   0  0  0  0  0  0  0  0  0  0  0  0
   -2.0255   -2.2524  -24.4533 H   0  0  0  0  0  0  0  0  0  0  0  0
   -4.3653   -0.3381  -25.0040 H   0  0  0  0  0  0  0  0  0  0  0  0
   -3.5264   -1.2911  -26.2230 H   0  0  0  0  0  0  0  0  0  0  0  0
   -4.7867   -2.7930  -24.0241 H   0  0  0  0  0  0  0  0  0  0  0  0
   -7.4780   -3.3915  -27.4359 H   0  0  0  0  0  0  0  0  0  0  0  0
   -8.4988   -4.5180  -26.3171 H   0  0  0  0  0  0  0  0  0  0  0  0
  1  2  2  0
  2  3  1  0
  3  4  1  0
  4  5  1  0
  5  6  2  0
  5  7  1  0
  7  8  1  0
  8  9  2  0
  9 10  1  0
 10 11  2  0
 11 12  1  0
 12 13  2  0
 13 14  1  0
 14 15  2  0
 15 16  1  0
 16 17  2  0
 16 18  1  0
 15 19  1  0
 14 20  1  0
 13 21  1  0
 11 22  1  0
  9 23  1  0
  7 24  1  0
  4 25  1  0
 25 26  2  0
 26 27  1  0
 27 28  2  0
 28 29  1  0
 29 30  1  0
 29 31  2  0
 31 32  1  0
 28 33  1  0
 27 34  1  0
 26 35  1  0
  3 36  1  0
  3 37  1  0
  2 38  1  0
 38 39  2  0
 38 40  1  0
 40 41  1  0
 41 42  1  0
 42 43  1  0
 42 44  1  0
 42 45  1  0
 41 46  1  0
 41 47  1  0
 40 48  1  0
  1 49  1  0
  1 50  1  0
 17  8  1  0
 31 25  1  0
 17 12  1  0
M  END
>  <cnnaffinities>  (49) 
[5.98289, 6.03424, 5.9068, 6.05168]

>  <score>  (49) 
5.98289

>  <index>  (49) 
51

>  <Smiles>  (49) 
C(=C(C(N(C(=O)N(c1c(nc(c2c(c(c(c(c12)[H])[H])[H])[H])[H])[H])[H])c1c(c(c(c(Cl)c1[H])[H])[H])[H])([H])[H])C(=O)N(C(C([H])([H])[H])([H])[H])[H])([H])[H]

>  <h>  (49) 
<NA>

>  <Training>  (49) 
True

>  <Success>  (49) 
True

>  <enamine_searched>  (49) 
False

>  <enamine_id>  (49) 
nan

$$$$

     RDKit          3D

 57 60  0  0  0  0  0  0  0  0999 V2000
  -13.9546   -1.1882  -24.0001 C   0  0  0  0  0  0  0  0  0  0  0  0
  -12.9450   -2.2610  -23.5920 C   0  0  0  0  0  0  0  0  0  0  0  0
  -11.4752   -1.8805  -23.6277 C   0  0  0  0  0  0  0  0  0  0  0  0
  -10.8604   -1.6821  -22.5910 O   0  0  0  0  0  0  0  0  0  0  0  0
  -10.8679   -1.8364  -24.8637 N   0  0  0  0  0  0  0  0  0  0  0  0
   -9.4653   -1.6982  -25.0165 C   0  0  0  0  0  0  0  0  0  0  0  0
   -8.9062   -0.9694  -26.0720 C   0  0  0  0  0  0  0  0  0  0  0  0
   -7.5387   -0.7099  -26.0984 C   0  0  0  0  0  0  0  0  0  0  0  0
   -6.7050   -1.2738  -25.1399 C   0  0  0  0  0  0  0  0  0  0  0  0
   -7.2542   -2.0831  -24.1487 C   0  0  0  0  0  0  0  0  0  0  0  0
   -6.4022   -2.7216  -23.2015 N   0  0  0  0  0  0  0  0  0  0  0  0
   -5.4245   -3.6830  -23.7090 C   0  0  0  0  0  0  0  0  0  0  0  0
   -6.0477   -5.0176  -24.0674 C   0  0  0  0  0  0  0  0  0  0  0  0
   -6.6805   -5.1888  -25.2991 C   0  0  0  0  0  0  0  0  0  0  0  0
   -7.3130   -6.3875  -25.6075 C   0  0  0  0  0  0  0  0  0  0  0  0
   -7.3172   -7.4272  -24.6847 C   0  0  0  0  0  0  0  0  0  0  0  0
   -6.6656   -7.2784  -23.4651 C   0  0  0  0  0  0  0  0  0  0  0  0
   -6.0412   -6.0744  -23.1565 C   0  0  0  0  0  0  0  0  0  0  0  0
   -5.5516   -5.9491  -22.1935 H   0  0  0  0  0  0  0  0  0  0  0  0
   -6.6295   -8.1037  -22.7568 H   0  0  0  0  0  0  0  0  0  0  0  0
   -7.8531   -8.3410  -24.9222 H   0  0  0  0  0  0  0  0  0  0  0  0
   -7.7972   -6.5198  -26.5726 H   0  0  0  0  0  0  0  0  0  0  0  0
   -6.6833   -4.3735  -26.0212 H   0  0  0  0  0  0  0  0  0  0  0  0
   -4.6734   -3.7921  -22.9242 H   0  0  0  0  0  0  0  0  0  0  0  0
   -4.9492   -3.2475  -24.5959 H   0  0  0  0  0  0  0  0  0  0  0  0
   -6.6114   -2.6906  -21.8346 C   0  0  0  0  0  0  0  0  0  0  0  0
   -6.1444   -3.5386  -21.0897 O   0  0  0  0  0  0  0  0  0  0  0  0
   -7.3781   -1.4918  -21.2774 C   0  0  0  0  0  0  0  0  0  0  0  0
   -6.5836   -0.8143  -20.1895 C   0  0  0  0  0  0  0  0  0  0  0  0
   -6.8941   -1.0171  -18.8772 C   0  0  0  0  0  0  0  0  0  0  0  0
   -6.2239   -0.4843  -17.8211 N   0  0  0  0  0  0  0  0  0  0  0  0
   -5.1770    0.2498  -18.0898 C   0  0  0  0  0  0  0  0  0  0  0  0
   -4.7232    0.5378  -19.4026 C   0  0  0  0  0  0  0  0  0  0  0  0
   -3.5889    1.3545  -19.6375 C   0  0  0  0  0  0  0  0  0  0  0  0
   -3.1865    1.6342  -20.9116 C   0  0  0  0  0  0  0  0  0  0  0  0
   -3.9000    1.0999  -22.0092 C   0  0  0  0  0  0  0  0  0  0  0  0
   -4.9985    0.3026  -21.8097 C   0  0  0  0  0  0  0  0  0  0  0  0
   -5.4478   -0.0015  -20.4951 C   0  0  0  0  0  0  0  0  0  0  0  0
   -5.5339   -0.0919  -22.6734 H   0  0  0  0  0  0  0  0  0  0  0  0
   -3.5802    1.3384  -23.0212 H   0  0  0  0  0  0  0  0  0  0  0  0
   -2.3271    2.2766  -21.0905 H   0  0  0  0  0  0  0  0  0  0  0  0
   -3.0623    1.7641  -18.7772 H   0  0  0  0  0  0  0  0  0  0  0  0
   -4.6217    0.6582  -17.2409 H   0  0  0  0  0  0  0  0  0  0  0  0
   -7.7432   -1.6514  -18.6144 H   0  0  0  0  0  0  0  0  0  0  0  0
   -7.6206   -0.7906  -22.0803 H   0  0  0  0  0  0  0  0  0  0  0  0
   -8.3327   -1.8685  -20.8850 H   0  0  0  0  0  0  0  0  0  0  0  0
   -8.6223   -2.2997  -24.0877 C   0  0  0  0  0  0  0  0  0  0  0  0
   -9.0236   -2.9626  -23.3317 H   0  0  0  0  0  0  0  0  0  0  0  0
   -5.6314   -1.1110  -25.1402 H   0  0  0  0  0  0  0  0  0  0  0  0
   -7.1152   -0.0679  -26.8709 H   0  0  0  0  0  0  0  0  0  0  0  0
   -9.5331   -0.6300  -26.8842 H   0  0  0  0  0  0  0  0  0  0  0  0
  -11.4393   -1.8671  -25.6973 H   0  0  0  0  0  0  0  0  0  0  0  0
  -13.1007   -2.5307  -22.5469 H   0  0  0  0  0  0  0  0  0  0  0  0
  -13.1028   -3.1634  -24.1848 H   0  0  0  0  0  0  0  0  0  0  0  0
  -14.9386   -1.6534  -24.1155 H   0  0  0  0  0  0  0  0  0  0  0  0
  -14.0428   -0.4212  -23.2236 H   0  0  0  0  0  0  0  0  0  0  0  0
  -13.7038   -0.6971  -24.9411 H   0  0  0  0  0  0  0  0  0  0  0  0
  1  2  1  0
  2  3  1  0
  3  4  2  0
  3  5  1  0
  5  6  1  0
  6  7  2  0
  7  8  1  0
  8  9  2  0
  9 10  1  0
 10 11  1  0
 11 12  1  0
 12 13  1  0
 13 14  2  0
 14 15  1  0
 15 16  2  0
 16 17  1  0
 17 18  2  0
 18 19  1  0
 17 20  1  0
 16 21  1  0
 15 22  1  0
 14 23  1  0
 12 24  1  0
 12 25  1  0
 11 26  1  0
 26 27  2  0
 26 28  1  0
 28 29  1  0
 29 30  2  0
 30 31  1  0
 31 32  2  0
 32 33  1  0
 33 34  2  0
 34 35  1  0
 35 36  2  0
 36 37  1  0
 37 38  2  0
 37 39  1  0
 36 40  1  0
 35 41  1  0
 34 42  1  0
 32 43  1  0
 30 44  1  0
 28 45  1  0
 28 46  1  0
 10 47  2  0
 47 48  1  0
  9 49  1  0
  8 50  1  0
  7 51  1  0
  5 52  1  0
  2 53  1  0
  2 54  1  0
  1 55  1  0
  1 56  1  0
  1 57  1  0
 47  6  1  0
 18 13  1  0
 38 29  1  0
 38 33  1  0
M  END
>  <cnnaffinities>  (50) 
[6.3448, 6.02693, 6.02773, 6.32951, 6.01269, 6.01324, 5.91393, 5.91458]

>  <score>  (50) 
6.3448

>  <index>  (50) 
52

>  <Smiles>  (50) 
C(C(C(=O)N(c1c(c(c(c(N(C(c2c(c(c(c(c2[H])[H])[H])[H])[H])([H])[H])C(=O)C(c2c(nc(c3c(c(c(c(c23)[H])[H])[H])[H])[H])[H])([H])[H])c1[H])[H])[H])[H])[H])([H])[H])([H])([H])[H]

>  <h>  (50) 
<NA>

>  <Training>  (50) 
True

>  <Success>  (50) 
True

>  <enamine_searched>  (50) 
False

>  <enamine_id>  (50) 
nan

$$$$

     RDKit          3D

 59 63  0  0  0  0  0  0  0  0999 V2000
  -13.9620   -1.0109  -24.5547 C   0  0  0  0  0  0  0  0  0  0  0  0
  -14.8495   -2.0551  -23.9052 C   0  0  0  0  0  0  0  0  0  0  0  0
  -14.0570   -3.0945  -23.2894 N   0  0  0  0  0  0  0  0  0  0  0  0
  -13.3307   -2.7647  -22.1799 C   0  0  0  0  0  0  0  0  0  0  0  0
  -13.4088   -1.6784  -21.6267 O   0  0  0  0  0  0  0  0  0  0  0  0
  -12.4367   -3.8950  -21.7084 C   0  0  0  0  0  0  0  0  0  0  0  0
  -11.1086   -3.8541  -22.3048 N   0  0  0  0  0  0  0  0  0  0  0  0
   -9.9716   -3.3281  -21.5471 C   0  0  0  0  0  0  0  0  0  0  0  0
   -8.7931   -2.8585  -22.4279 C   0  0  2  0  0  0  0  0  0  0  0  0
   -7.5646   -2.6406  -21.5228 C   0  0  0  0  0  0  0  0  0  0  0  0
   -6.7931   -3.4765  -21.0981 O   0  0  0  0  0  0  0  0  0  0  0  0
   -7.4218   -1.2946  -21.2796 N   0  0  0  0  0  0  0  0  0  0  0  0
   -6.6025   -0.8120  -20.2323 C   0  0  0  0  0  0  0  0  0  0  0  0
   -6.9312   -1.0426  -18.9201 C   0  0  0  0  0  0  0  0  0  0  0  0
   -6.2675   -0.4945  -17.8734 N   0  0  0  0  0  0  0  0  0  0  0  0
   -5.2301    0.2604  -18.1317 C   0  0  0  0  0  0  0  0  0  0  0  0
   -4.7607    0.5485  -19.4428 C   0  0  0  0  0  0  0  0  0  0  0  0
   -3.6209    1.3602  -19.6720 C   0  0  0  0  0  0  0  0  0  0  0  0
   -3.2121    1.6216  -20.9503 C   0  0  0  0  0  0  0  0  0  0  0  0
   -3.9171    1.0812  -22.0506 C   0  0  0  0  0  0  0  0  0  0  0  0
   -5.0205    0.2864  -21.8536 C   0  0  0  0  0  0  0  0  0  0  0  0
   -5.4683    0.0048  -20.5355 C   0  0  0  0  0  0  0  0  0  0  0  0
   -5.5570   -0.1415  -22.6957 H   0  0  0  0  0  0  0  0  0  0  0  0
   -3.5797    1.2932  -23.0605 H   0  0  0  0  0  0  0  0  0  0  0  0
   -2.3394    2.2439  -21.1275 H   0  0  0  0  0  0  0  0  0  0  0  0
   -3.0929    1.7636  -18.8124 H   0  0  0  0  0  0  0  0  0  0  0  0
   -4.7021    0.6886  -17.2797 H   0  0  0  0  0  0  0  0  0  0  0  0
   -7.7762   -1.6764  -18.6549 H   0  0  0  0  0  0  0  0  0  0  0  0
   -8.4324   -0.4729  -21.9118 C   0  0  0  0  0  0  0  0  0  0  0  0
   -9.0227   -1.4046  -22.9863 C   0  0  2  0  0  0  0  0  0  0  0  0
  -10.4615   -1.0539  -23.3496 C   0  0  0  0  0  0  0  0  0  0  0  0
  -10.5444   -0.0826  -23.8464 H   0  0  0  0  0  0  0  0  0  0  0  0
  -11.1034   -1.0135  -22.4620 H   0  0  0  0  0  0  0  0  0  0  0  0
  -10.8781   -1.8053  -24.0283 H   0  0  0  0  0  0  0  0  0  0  0  0
   -8.3973   -1.3353  -23.8865 H   0  0  0  0  0  0  0  0  0  0  0  0
   -7.9872    0.4413  -22.3208 H   0  0  0  0  0  0  0  0  0  0  0  0
   -9.1966   -0.1508  -21.1851 H   0  0  0  0  0  0  0  0  0  0  0  0
   -8.5320   -3.9117  -23.4788 C   0  0  0  0  0  0  0  0  0  0  0  0
   -7.2582   -4.0735  -24.0353 C   0  0  0  0  0  0  0  0  0  0  0  0
   -7.0473   -5.0390  -25.0048 C   0  0  0  0  0  0  0  0  0  0  0  0
   -5.4485   -5.2313  -25.6790 Cl  0  0  0  0  0  0  0  0  0  0  0  0
   -8.0736   -5.8900  -25.4203 C   0  0  0  0  0  0  0  0  0  0  0  0
   -9.3423   -5.7082  -24.9028 C   0  0  0  0  0  0  0  0  0  0  0  0
   -9.5702   -4.7197  -23.9517 C   0  0  0  0  0  0  0  0  0  0  0  0
  -10.9628   -4.5356  -23.4739 C   0  0  0  0  0  0  0  0  0  0  0  0
  -11.9293   -4.9740  -24.1004 O   0  0  0  0  0  0  0  0  0  0  0  0
  -10.1850   -6.3128  -25.2279 H   0  0  0  0  0  0  0  0  0  0  0  0
   -7.8699   -6.6783  -26.1358 H   0  0  0  0  0  0  0  0  0  0  0  0
   -6.4202   -3.4898  -23.6703 H   0  0  0  0  0  0  0  0  0  0  0  0
   -9.6008   -4.0892  -20.8605 H   0  0  0  0  0  0  0  0  0  0  0  0
  -10.2841   -2.4668  -20.9496 H   0  0  0  0  0  0  0  0  0  0  0  0
  -12.9535   -4.7719  -22.0875 H   0  0  0  0  0  0  0  0  0  0  0  0
  -12.3656   -3.9339  -20.6203 H   0  0  0  0  0  0  0  0  0  0  0  0
  -13.6434   -3.7761  -23.9190 H   0  0  0  0  0  0  0  0  0  0  0  0
  -15.4503   -1.5954  -23.1202 H   0  0  0  0  0  0  0  0  0  0  0  0
  -15.5146   -2.5332  -24.6296 H   0  0  0  0  0  0  0  0  0  0  0  0
  -14.5304   -0.2571  -25.0935 H   0  0  0  0  0  0  0  0  0  0  0  0
  -13.2777   -1.4966  -25.2560 H   0  0  0  0  0  0  0  0  0  0  0  0
  -13.3637   -0.5054  -23.7942 H   0  0  0  0  0  0  0  0  0  0  0  0
  1  2  1  0
  2  3  1  0
  3  4  1  0
  4  5  2  0
  4  6  1  0
  6  7  1  0
  7  8  1  0
  9  8  1  1
  9 10  1  0
 10 11  2  0
 10 12  1  0
 12 13  1  0
 13 14  2  0
 14 15  1  0
 15 16  2  0
 16 17  1  0
 17 18  2  0
 18 19  1  0
 19 20  2  0
 20 21  1  0
 21 22  2  0
 21 23  1  0
 20 24  1  0
 19 25  1  0
 18 26  1  0
 16 27  1  0
 14 28  1  0
 12 29  1  0
 29 30  1  0
 30 31  1  0
 31 32  1  0
 31 33  1  0
 31 34  1  0
 30 35  1  6
 29 36  1  0
 29 37  1  0
  9 38  1  0
 38 39  2  0
 39 40  1  0
 40 41  1  0
 40 42  2  0
 42 43  1  0
 43 44  2  0
 44 45  1  0
 45 46  2  0
 43 47  1  0
 42 48  1  0
 39 49  1  0
  8 50  1  0
  8 51  1  0
  6 52  1  0
  6 53  1  0
  3 54  1  0
  2 55  1  0
  2 56  1  0
  1 57  1  0
  1 58  1  0
  1 59  1  0
 45  7  1  0
 30  9  1  0
 44 38  1  0
 22 13  1  0
 22 17  1  0
M  END
>  <cnnaffinities>  (51) 
[6.59165, 6.42764]

>  <score>  (51) 
6.59165

>  <index>  (51) 
53

>  <Smiles>  (51) 
C(C(N(C(=O)C(N1C([C@@]2(C(=O)N(c3c(nc(c4c(c(c(c(c34)[H])[H])[H])[H])[H])[H])C([C@@]2(C([H])([H])[H])[H])([H])[H])c2c(c(Cl)c(c(c2C1=O)[H])[H])[H])([H])[H])([H])[H])[H])([H])[H])([H])([H])[H]

>  <h>  (51) 
<NA>

>  <Training>  (51) 
True

>  <Success>  (51) 
True

>  <enamine_searched>  (51) 
False

>  <enamine_id>  (51) 
nan

$$$$

     RDKit          3D

 40 43  0  0  0  0  0  0  0  0999 V2000
  -10.3243   -2.3066  -23.0022 C   0  0  0  0  0  0  0  0  0  0  0  0
   -8.9845   -2.1726  -22.4708 N   0  0  0  0  0  0  0  0  0  0  0  0
   -7.7950   -2.6483  -22.9390 C   0  0  0  0  0  0  0  0  0  0  0  0
   -7.6699   -3.3486  -24.2489 C   0  0  0  0  0  0  0  0  0  0  0  0
   -7.6822   -2.3475  -25.3968 C   0  0  0  0  0  0  0  0  0  0  0  0
   -8.8069   -2.1637  -26.2006 C   0  0  0  0  0  0  0  0  0  0  0  0
   -8.7983   -1.2288  -27.2362 C   0  0  0  0  0  0  0  0  0  0  0  0
   -7.6642   -0.4539  -27.4645 C   0  0  0  0  0  0  0  0  0  0  0  0
   -6.5436   -0.6155  -26.6530 C   0  0  0  0  0  0  0  0  0  0  0  0
   -6.5598   -1.5529  -25.6233 C   0  0  0  0  0  0  0  0  0  0  0  0
   -5.6951   -1.6788  -24.9736 H   0  0  0  0  0  0  0  0  0  0  0  0
   -5.6541   -0.0130  -26.8245 H   0  0  0  0  0  0  0  0  0  0  0  0
   -7.6549    0.2782  -28.2694 H   0  0  0  0  0  0  0  0  0  0  0  0
   -9.6755   -1.1073  -27.8688 H   0  0  0  0  0  0  0  0  0  0  0  0
   -9.7023   -2.7560  -26.0133 H   0  0  0  0  0  0  0  0  0  0  0  0
   -6.7329   -3.9158  -24.2442 H   0  0  0  0  0  0  0  0  0  0  0  0
   -8.4914   -4.0633  -24.3786 H   0  0  0  0  0  0  0  0  0  0  0  0
   -6.7931   -2.2463  -22.2117 N   0  0  0  0  0  0  0  0  0  0  0  0
   -7.3453   -1.4562  -21.2375 N   0  0  0  0  0  0  0  0  0  0  0  0
   -6.5716   -0.8628  -20.2034 C   0  0  0  0  0  0  0  0  0  0  0  0
   -6.9036   -1.0579  -18.8845 C   0  0  0  0  0  0  0  0  0  0  0  0
   -6.2247   -0.5166  -17.8474 N   0  0  0  0  0  0  0  0  0  0  0  0
   -5.1776    0.2189  -18.1083 C   0  0  0  0  0  0  0  0  0  0  0  0
   -4.7310    0.5173  -19.4197 C   0  0  0  0  0  0  0  0  0  0  0  0
   -3.6048    1.3561  -19.6396 C   0  0  0  0  0  0  0  0  0  0  0  0
   -3.2208    1.6709  -20.9114 C   0  0  0  0  0  0  0  0  0  0  0  0
   -3.9575    1.1658  -22.0103 C   0  0  0  0  0  0  0  0  0  0  0  0
   -5.0444    0.3509  -21.8201 C   0  0  0  0  0  0  0  0  0  0  0  0
   -5.4528   -0.0238  -20.5104 C   0  0  0  0  0  0  0  0  0  0  0  0
   -5.6120   -0.0365  -22.6583 H   0  0  0  0  0  0  0  0  0  0  0  0
   -3.6495    1.4269  -23.0167 H   0  0  0  0  0  0  0  0  0  0  0  0
   -2.3657    2.3196  -21.0862 H   0  0  0  0  0  0  0  0  0  0  0  0
   -3.0787    1.7530  -18.7744 H   0  0  0  0  0  0  0  0  0  0  0  0
   -4.6280    0.6162  -17.2541 H   0  0  0  0  0  0  0  0  0  0  0  0
   -7.7545   -1.6719  -18.6079 H   0  0  0  0  0  0  0  0  0  0  0  0
   -8.6989   -1.2609  -21.4600 C   0  0  0  0  0  0  0  0  0  0  0  0
   -9.4377   -0.4330  -20.9765 O   0  0  0  0  0  0  0  0  0  0  0  0
  -10.4954   -1.5486  -23.7700 H   0  0  0  0  0  0  0  0  0  0  0  0
  -10.5084   -3.3103  -23.4007 H   0  0  0  0  0  0  0  0  0  0  0  0
  -10.9976   -2.1148  -22.1684 H   0  0  0  0  0  0  0  0  0  0  0  0
  1  2  1  0
  2  3  1  0
  3  4  1  0
  4  5  1  0
  5  6  2  0
  6  7  1  0
  7  8  2  0
  8  9  1  0
  9 10  2  0
 10 11  1  0
  9 12  1  0
  8 13  1  0
  7 14  1  0
  6 15  1  0
  4 16  1  0
  4 17  1  0
  3 18  2  0
 18 19  1  0
 19 20  1  0
 20 21  2  0
 21 22  1  0
 22 23  2  0
 23 24  1  0
 24 25  2  0
 25 26  1  0
 26 27  2  0
 27 28  1  0
 28 29  2  0
 28 30  1  0
 27 31  1  0
 26 32  1  0
 25 33  1  0
 23 34  1  0
 21 35  1  0
 19 36  1  0
 36 37  2  0
  1 38  1  0
  1 39  1  0
  1 40  1  0
 36  2  1  0
 10  5  1  0
 29 20  1  0
 29 24  1  0
M  END
>  <cnnaffinities>  (52) 
[5.04002, 5.03991, 5.45086, 5.45195]

>  <score>  (52) 
5.04002

>  <index>  (52) 
54

>  <Smiles>  (52) 
C(n1c(C(c2c(c(c(c(c2[H])[H])[H])[H])[H])([H])[H])nn(c2c(nc(c3c(c(c(c(c23)[H])[H])[H])[H])[H])[H])c1=O)([H])([H])[H]

>  <h>  (52) 
<NA>

>  <Training>  (52) 
True

>  <Success>  (52) 
True

>  <enamine_searched>  (52) 
False

>  <enamine_id>  (52) 
nan

$$$$

     RDKit          3D

 61 66  0  0  0  0  0  0  0  0999 V2000
   -7.0026   -5.4690  -25.0548 C   0  0  0  0  0  0  0  0  0  0  0  0
   -7.3324   -4.8064  -23.8601 O   0  0  0  0  0  0  0  0  0  0  0  0
   -7.9854   -3.5832  -24.0885 C   0  0  0  0  0  0  0  0  0  0  0  0
   -8.2833   -2.9338  -22.7390 C   0  0  1  0  0  0  0  0  0  0  0  0
   -7.0039   -2.5580  -21.9642 C   0  0  0  0  0  0  0  0  0  0  0  0
   -7.3855   -1.3694  -21.2238 N   0  0  0  0  0  0  0  0  0  0  0  0
   -6.6033   -0.7940  -20.1965 C   0  0  0  0  0  0  0  0  0  0  0  0
   -6.9325   -1.0098  -18.8835 C   0  0  0  0  0  0  0  0  0  0  0  0
   -6.2421   -0.4958  -17.8406 N   0  0  0  0  0  0  0  0  0  0  0  0
   -5.1915    0.2393  -18.1074 C   0  0  0  0  0  0  0  0  0  0  0  0
   -4.7455    0.5451  -19.4219 C   0  0  0  0  0  0  0  0  0  0  0  0
   -3.6175    1.3731  -19.6575 C   0  0  0  0  0  0  0  0  0  0  0  0
   -3.2311    1.6684  -20.9356 C   0  0  0  0  0  0  0  0  0  0  0  0
   -3.9365    1.1309  -22.0330 C   0  0  0  0  0  0  0  0  0  0  0  0
   -5.0170    0.3035  -21.8277 C   0  0  0  0  0  0  0  0  0  0  0  0
   -5.4612    0.0041  -20.5107 C   0  0  0  0  0  0  0  0  0  0  0  0
   -5.5768   -0.0687  -22.6798 H   0  0  0  0  0  0  0  0  0  0  0  0
   -3.6258    1.3937  -23.0413 H   0  0  0  0  0  0  0  0  0  0  0  0
   -2.3803    2.3199  -21.1104 H   0  0  0  0  0  0  0  0  0  0  0  0
   -3.0824    1.7669  -18.8005 H   0  0  0  0  0  0  0  0  0  0  0  0
   -4.6281    0.6326  -17.2611 H   0  0  0  0  0  0  0  0  0  0  0  0
   -7.7912   -1.6310  -18.6348 H   0  0  0  0  0  0  0  0  0  0  0  0
   -8.5979   -0.8315  -21.5832 C   0  0  0  0  0  0  0  0  0  0  0  0
   -9.1325    0.1124  -21.0342 O   0  0  0  0  0  0  0  0  0  0  0  0
   -9.1423   -1.6425  -22.7805 C   0  0  1  0  0  0  0  0  0  0  0  0
   -8.9111   -0.8571  -24.0955 C   0  0  0  0  0  0  0  0  0  0  0  0
   -9.7049    0.3542  -24.1624 N   0  0  0  0  0  0  0  0  0  0  0  0
   -9.0029    1.5518  -24.5950 C   0  0  0  0  0  0  0  0  0  0  0  0
   -8.2026    2.2166  -23.5228 C   0  0  0  0  0  0  0  0  0  0  0  0
   -6.8649    2.3582  -23.3630 C   0  0  0  0  0  0  0  0  0  0  0  0
   -6.6559    3.1184  -22.2364 N   0  0  0  0  0  4  0  0  0  0  0  0
   -7.8416    3.4642  -21.7284 C   0  0  0  0  0  0  0  0  0  0  0  0
   -8.7973    2.9268  -22.5012 N   0  0  0  0  0  0  0  0  0  0  0  0
   -9.7923    2.9308  -22.2877 H   0  0  0  0  0  0  0  0  0  0  0  0
   -7.9950    4.1259  -20.8883 H   0  0  0  0  0  0  0  0  0  0  0  0
   -5.7404    3.2109  -21.8065 H   0  0  0  0  0  0  0  0  0  0  0  0
   -6.0325    1.9912  -23.9383 H   0  0  0  0  0  0  0  0  0  0  0  0
   -9.7422    2.2551  -24.9729 H   0  0  0  0  0  0  0  0  0  0  0  0
   -8.3527    1.2661  -25.4289 H   0  0  0  0  0  0  0  0  0  0  0  0
  -10.9413    0.4459  -23.5980 C   0  0  0  0  0  0  0  0  0  0  0  0
  -11.5249    1.5205  -23.4470 O   0  0  0  0  0  0  0  0  0  0  0  0
  -11.5105   -0.8513  -23.1068 C   0  0  0  0  0  0  0  0  0  0  0  0
  -12.8909   -1.0464  -23.0589 C   0  0  0  0  0  0  0  0  0  0  0  0
  -13.4101   -2.0889  -22.3187 C   0  0  0  0  0  0  0  0  0  0  0  0
  -12.5230   -2.9267  -21.6422 C   0  0  0  0  0  0  0  0  0  0  0  0
  -13.1736   -4.0580  -20.4935 Cl  0  0  0  0  0  0  0  0  0  0  0  0
  -11.1519   -2.8344  -21.8012 C   0  0  0  0  0  0  0  0  0  0  0  0
  -10.6312   -1.8210  -22.6061 C   0  0  0  0  0  0  0  0  0  0  0  0
  -10.5049   -3.5374  -21.2836 H   0  0  0  0  0  0  0  0  0  0  0  0
  -14.4787   -2.2483  -22.1999 H   0  0  0  0  0  0  0  0  0  0  0  0
  -13.5523   -0.3690  -23.5840 H   0  0  0  0  0  0  0  0  0  0  0  0
   -9.1579   -1.4954  -24.9505 H   0  0  0  0  0  0  0  0  0  0  0  0
   -7.8568   -0.5691  -24.1601 H   0  0  0  0  0  0  0  0  0  0  0  0
   -6.1658   -2.3513  -22.6430 H   0  0  0  0  0  0  0  0  0  0  0  0
   -6.6894   -3.3554  -21.2856 H   0  0  0  0  0  0  0  0  0  0  0  0
   -8.8184   -3.6832  -22.1563 H   0  0  0  0  0  0  0  0  0  0  0  0
   -8.9171   -3.7504  -24.6588 H   0  0  0  0  0  0  0  0  0  0  0  0
   -7.3428   -2.9190  -24.6934 H   0  0  0  0  0  0  0  0  0  0  0  0
   -6.5368   -6.4213  -24.7890 H   0  0  0  0  0  0  0  0  0  0  0  0
   -7.8938   -5.6753  -25.6696 H   0  0  0  0  0  0  0  0  0  0  0  0
   -6.2906   -4.8881  -25.6636 H   0  0  0  0  0  0  0  0  0  0  0  0
  1  2  1  0
  2  3  1  0
  3  4  1  0
  4  5  1  0
  5  6  1  0
  6  7  1  0
  7  8  2  0
  8  9  1  0
  9 10  2  0
 10 11  1  0
 11 12  2  0
 12 13  1  0
 13 14  2  0
 14 15  1  0
 15 16  2  0
 15 17  1  0
 14 18  1  0
 13 19  1  0
 12 20  1  0
 10 21  1  0
  8 22  1  0
  6 23  1  0
 23 24  2  0
 23 25  1  0
 25 26  1  6
 26 27  1  0
 27 28  1  0
 28 29  1  0
 29 30  2  0
 30 31  1  0
 31 32  2  0
 32 33  1  0
 33 34  1  0
 32 35  1  0
 31 36  1  0
 30 37  1  0
 28 38  1  0
 28 39  1  0
 27 40  1  0
 40 41  2  0
 40 42  1  0
 42 43  2  0
 43 44  1  0
 44 45  2  0
 45 46  1  0
 45 47  1  0
 47 48  2  0
 47 49  1  0
 44 50  1  0
 43 51  1  0
 26 52  1  0
 26 53  1  0
  5 54  1  0
  5 55  1  0
  4 56  1  1
  3 57  1  0
  3 58  1  0
  1 59  1  0
  1 60  1  0
  1 61  1  0
 25  4  1  0
 33 29  1  0
 48 42  1  0
 16  7  1  0
 48 25  1  0
 16 11  1  0
M  CHG  1  31   1
M  END
>  <cnnaffinities>  (53) 
[6.61307]

>  <score>  (53) 
6.61307

>  <index>  (53) 
55

>  <Smiles>  (53) 
C(OC([C@]1(C(N(c2c(nc(c3c(c(c(c(c23)[H])[H])[H])[H])[H])[H])C(=O)[C@]21C(N(C(c1c([n+](c(n1[H])[H])[H])[H])([H])[H])C(=O)c1c(c(c(Cl)c(c21)[H])[H])[H])([H])[H])([H])[H])[H])([H])[H])([H])([H])[H]

>  <h>  (53) 
<NA>

>  <Training>  (53) 
True

>  <Success>  (53) 
True

>  <enamine_searched>  (53) 
False

>  <enamine_id>  (53) 
nan

$$$$

     RDKit          3D

 57 62  0  0  0  0  0  0  0  0999 V2000
   -8.2762   -4.1135  -23.5276 C   0  0  0  0  0  0  0  0  0  0  0  0
   -8.5215   -2.9593  -22.5562 C   0  0  1  0  0  0  0  0  0  0  0  0
   -7.3927   -2.7739  -21.5312 C   0  0  0  0  0  0  0  0  0  0  0  0
   -7.4002   -1.3577  -21.2305 N   0  0  0  0  0  0  0  0  0  0  0  0
   -6.6091   -0.7901  -20.1987 C   0  0  0  0  0  0  0  0  0  0  0  0
   -6.9030   -1.0379  -18.8823 C   0  0  0  0  0  0  0  0  0  0  0  0
   -6.2155   -0.5215  -17.8362 N   0  0  0  0  0  0  0  0  0  0  0  0
   -5.1733    0.2251  -18.0955 C   0  0  0  0  0  0  0  0  0  0  0  0
   -4.7284    0.5308  -19.4097 C   0  0  0  0  0  0  0  0  0  0  0  0
   -3.5893    1.3491  -19.6404 C   0  0  0  0  0  0  0  0  0  0  0  0
   -3.1783    1.6184  -20.9155 C   0  0  0  0  0  0  0  0  0  0  0  0
   -3.8786    1.0680  -22.0136 C   0  0  0  0  0  0  0  0  0  0  0  0
   -4.9783    0.2753  -21.8141 C   0  0  0  0  0  0  0  0  0  0  0  0
   -5.4532    0.0031  -20.5009 C   0  0  0  0  0  0  0  0  0  0  0  0
   -5.5090   -0.1411  -22.6639 H   0  0  0  0  0  0  0  0  0  0  0  0
   -3.5535    1.2888  -23.0246 H   0  0  0  0  0  0  0  0  0  0  0  0
   -2.3225    2.2645  -21.0926 H   0  0  0  0  0  0  0  0  0  0  0  0
   -3.0713    1.7653  -18.7798 H   0  0  0  0  0  0  0  0  0  0  0  0
   -4.6241    0.6218  -17.2416 H   0  0  0  0  0  0  0  0  0  0  0  0
   -7.7423   -1.6773  -18.6126 H   0  0  0  0  0  0  0  0  0  0  0  0
   -8.1272   -0.5993  -22.1163 C   0  0  0  0  0  0  0  0  0  0  0  0
   -8.2420    0.6078  -22.0477 O   0  0  0  0  0  0  0  0  0  0  0  0
   -8.7367   -1.5332  -23.1848 C   0  0  1  0  0  0  0  0  0  0  0  0
   -7.9738   -1.2796  -24.5036 C   0  0  0  0  0  0  0  0  0  0  0  0
   -8.6138   -1.8780  -25.6728 N   0  0  0  0  0  0  0  0  0  0  0  0
   -7.7789   -2.3051  -26.7928 C   0  0  0  0  0  0  0  0  0  0  0  0
   -7.6509   -3.8080  -26.9044 C   0  0  0  0  0  0  0  0  0  0  0  0
   -8.7436   -4.4712  -27.3025 N   0  0  0  0  0  0  0  0  0  0  0  0
   -8.6343   -5.7912  -27.3716 C   0  0  0  0  0  0  0  0  0  0  0  0
   -7.4551   -6.4618  -27.0684 C   0  0  0  0  0  0  0  0  0  0  0  0
   -6.3831   -5.6709  -26.6923 C   0  0  0  0  0  0  0  0  0  0  0  0
   -6.4662   -4.3384  -26.6022 N   0  0  0  0  0  0  0  0  0  0  0  0
   -5.4175   -6.1071  -26.4362 H   0  0  0  0  0  0  0  0  0  0  0  0
   -7.3886   -7.5472  -27.1134 H   0  0  0  0  0  0  0  0  0  0  0  0
   -9.5374   -6.3209  -27.6705 H   0  0  0  0  0  0  0  0  0  0  0  0
   -6.7747   -1.8911  -26.6572 H   0  0  0  0  0  0  0  0  0  0  0  0
   -8.2480   -1.9300  -27.7103 H   0  0  0  0  0  0  0  0  0  0  0  0
   -9.9628   -1.7992  -25.8796 C   0  0  0  0  0  0  0  0  0  0  0  0
  -10.4863   -2.0480  -26.9567 O   0  0  0  0  0  0  0  0  0  0  0  0
  -10.7722   -1.4123  -24.6910 C   0  0  0  0  0  0  0  0  0  0  0  0
  -12.1451   -1.2994  -24.8837 C   0  0  0  0  0  0  0  0  0  0  0  0
  -12.9499   -0.9297  -23.8300 C   0  0  0  0  0  0  0  0  0  0  0  0
  -12.3940   -0.8389  -22.5656 C   0  0  0  0  0  0  0  0  0  0  0  0
  -13.2729   -0.7097  -21.5679 F   0  0  0  0  0  0  0  0  0  0  0  0
  -11.0383   -0.9609  -22.3351 C   0  0  0  0  0  0  0  0  0  0  0  0
  -10.2039   -1.2350  -23.4261 C   0  0  0  0  0  0  0  0  0  0  0  0
  -10.6188   -0.8660  -21.3405 H   0  0  0  0  0  0  0  0  0  0  0  0
  -14.0135   -0.7620  -23.9058 H   0  0  0  0  0  0  0  0  0  0  0  0
  -12.5300   -1.5925  -25.8549 H   0  0  0  0  0  0  0  0  0  0  0  0
   -7.9011   -0.1853  -24.6072 H   0  0  0  0  0  0  0  0  0  0  0  0
   -6.9651   -1.7104  -24.4367 H   0  0  0  0  0  0  0  0  0  0  0  0
   -7.5741   -3.3220  -20.6123 H   0  0  0  0  0  0  0  0  0  0  0  0
   -6.4220   -3.0943  -21.9373 H   0  0  0  0  0  0  0  0  0  0  0  0
   -9.4466   -3.1657  -21.9987 H   0  0  0  0  0  0  0  0  0  0  0  0
   -7.3252   -3.9898  -24.0570 H   0  0  0  0  0  0  0  0  0  0  0  0
   -8.2332   -5.0673  -22.9922 H   0  0  0  0  0  0  0  0  0  0  0  0
   -9.0781   -4.1774  -24.2708 H   0  0  0  0  0  0  0  0  0  0  0  0
  1  2  1  0
  2  3  1  0
  3  4  1  0
  4  5  1  0
  5  6  2  0
  6  7  1  0
  7  8  2  0
  8  9  1  0
  9 10  2  0
 10 11  1  0
 11 12  2  0
 12 13  1  0
 13 14  2  0
 13 15  1  0
 12 16  1  0
 11 17  1  0
 10 18  1  0
  8 19  1  0
  6 20  1  0
  4 21  1  0
 21 22  2  0
 21 23  1  0
 23 24  1  6
 24 25  1  0
 25 26  1  0
 26 27  1  0
 27 28  2  0
 28 29  1  0
 29 30  2  0
 30 31  1  0
 31 32  2  0
 31 33  1  0
 30 34  1  0
 29 35  1  0
 26 36  1  0
 26 37  1  0
 25 38  1  0
 38 39  2  0
 38 40  1  0
 40 41  2  0
 41 42  1  0
 42 43  2  0
 43 44  1  0
 43 45  1  0
 45 46  2  0
 45 47  1  0
 42 48  1  0
 41 49  1  0
 24 50  1  0
 24 51  1  0
  3 52  1  0
  3 53  1  0
  2 54  1  1
  1 55  1  0
  1 56  1  0
  1 57  1  0
 23  2  1  0
 32 27  1  0
 46 40  1  0
 14  5  1  0
 46 23  1  0
 14  9  1  0
M  END
>  <cnnaffinities>  (54) 
[6.36569, 6.36976]

>  <score>  (54) 
6.36569

>  <index>  (54) 
56

>  <Smiles>  (54) 
C([C@]1(C(N(c2c(nc(c3c(c(c(c(c23)[H])[H])[H])[H])[H])[H])C(=O)[C@]21C(N(C(c1nc(c(c(n1)[H])[H])[H])([H])[H])C(=O)c1c(c(c(F)c(c21)[H])[H])[H])([H])[H])([H])[H])[H])([H])([H])[H]

>  <h>  (54) 
<NA>

>  <Training>  (54) 
True

>  <Success>  (54) 
True

>  <enamine_searched>  (54) 
False

>  <enamine_id>  (54) 
nan

$$$$

     RDKit          3D

 59 63  0  0  0  0  0  0  0  0999 V2000
  -14.5088   -1.2662  -23.5409 C   0  0  0  0  0  0  0  0  0  0  0  0
  -13.7777   -2.4533  -23.1434 N   0  0  0  0  0  0  0  0  0  0  0  0
  -13.4752   -2.6737  -21.8357 C   0  0  0  0  0  0  0  0  0  0  0  0
  -13.9300   -1.9895  -20.9302 O   0  0  0  0  0  0  0  0  0  0  0  0
  -12.5261   -3.8490  -21.5788 C   0  0  0  0  0  0  0  0  0  0  0  0
  -11.2059   -3.7591  -22.1986 N   0  0  0  0  0  0  0  0  0  0  0  0
  -10.0533   -3.2785  -21.4341 C   0  0  0  0  0  0  0  0  0  0  0  0
   -8.8412   -2.9175  -22.3350 C   0  0  2  0  0  0  0  0  0  0  0  0
   -7.5889   -2.6732  -21.4761 C   0  0  0  0  0  0  0  0  0  0  0  0
   -6.7966   -3.5068  -21.0881 O   0  0  0  0  0  0  0  0  0  0  0  0
   -7.4318   -1.3203  -21.2718 N   0  0  0  0  0  0  0  0  0  0  0  0
   -6.6117   -0.8105  -20.2298 C   0  0  0  0  0  0  0  0  0  0  0  0
   -6.9252   -1.0361  -18.9138 C   0  0  0  0  0  0  0  0  0  0  0  0
   -6.2562   -0.4965  -17.8641 N   0  0  0  0  0  0  0  0  0  0  0  0
   -5.2202    0.2582  -18.1234 C   0  0  0  0  0  0  0  0  0  0  0  0
   -4.7623    0.5480  -19.4361 C   0  0  0  0  0  0  0  0  0  0  0  0
   -3.6175    1.3535  -19.6605 C   0  0  0  0  0  0  0  0  0  0  0  0
   -3.2045    1.6213  -20.9346 C   0  0  0  0  0  0  0  0  0  0  0  0
   -3.9108    1.0880  -22.0371 C   0  0  0  0  0  0  0  0  0  0  0  0
   -5.0184    0.3010  -21.8429 C   0  0  0  0  0  0  0  0  0  0  0  0
   -5.4788    0.0121  -20.5321 C   0  0  0  0  0  0  0  0  0  0  0  0
   -5.5488   -0.1105  -22.6953 H   0  0  0  0  0  0  0  0  0  0  0  0
   -3.5691    1.3033  -23.0450 H   0  0  0  0  0  0  0  0  0  0  0  0
   -2.3353    2.2479  -21.1106 H   0  0  0  0  0  0  0  0  0  0  0  0
   -3.0850    1.7563  -18.8015 H   0  0  0  0  0  0  0  0  0  0  0  0
   -4.6775    0.6698  -17.2708 H   0  0  0  0  0  0  0  0  0  0  0  0
   -7.7677   -1.6730  -18.6555 H   0  0  0  0  0  0  0  0  0  0  0  0
   -8.4488   -0.5284  -21.9376 C   0  0  0  0  0  0  0  0  0  0  0  0
   -9.0350   -1.4812  -23.0110 C   0  0  0  0  0  0  0  0  0  0  0  0
  -10.4853   -1.0981  -23.3108 C   0  0  0  0  0  0  0  0  0  0  0  0
  -11.0913   -1.0831  -22.4009 H   0  0  0  0  0  0  0  0  0  0  0  0
  -10.9286   -1.8168  -24.0044 H   0  0  0  0  0  0  0  0  0  0  0  0
  -10.5310   -0.1031  -23.7641 H   0  0  0  0  0  0  0  0  0  0  0  0
   -8.2358   -1.4129  -24.3194 C   0  0  0  0  0  0  0  0  0  0  0  0
   -8.6346   -2.1417  -25.0336 H   0  0  0  0  0  0  0  0  0  0  0  0
   -8.3124   -0.4166  -24.7637 H   0  0  0  0  0  0  0  0  0  0  0  0
   -7.1777   -1.6571  -24.1676 H   0  0  0  0  0  0  0  0  0  0  0  0
   -8.0065    0.3716  -22.3778 H   0  0  0  0  0  0  0  0  0  0  0  0
   -9.2322   -0.2101  -21.2280 H   0  0  0  0  0  0  0  0  0  0  0  0
   -8.6041   -4.0889  -23.2660 C   0  0  0  0  0  0  0  0  0  0  0  0
   -7.3240   -4.4586  -23.7079 C   0  0  0  0  0  0  0  0  0  0  0  0
   -7.1733   -5.4713  -24.6407 C   0  0  0  0  0  0  0  0  0  0  0  0
   -5.5745   -5.8508  -25.2316 Cl  0  0  0  0  0  0  0  0  0  0  0  0
   -8.2636   -6.1812  -25.1406 C   0  0  0  0  0  0  0  0  0  0  0  0
   -9.5230   -5.8319  -24.6940 C   0  0  0  0  0  0  0  0  0  0  0  0
   -9.6918   -4.7976  -23.7786 C   0  0  0  0  0  0  0  0  0  0  0  0
  -11.0737   -4.4504  -23.3674 C   0  0  0  0  0  0  0  0  0  0  0  0
  -12.0597   -4.7898  -24.0248 O   0  0  0  0  0  0  0  0  0  0  0  0
  -10.4053   -6.3572  -25.0405 H   0  0  0  0  0  0  0  0  0  0  0  0
   -8.1197   -6.9809  -25.8603 H   0  0  0  0  0  0  0  0  0  0  0  0
   -6.4378   -3.9702  -23.3244 H   0  0  0  0  0  0  0  0  0  0  0  0
  -10.3410   -2.3784  -20.8832 H   0  0  0  0  0  0  0  0  0  0  0  0
   -9.7697   -4.0393  -20.7007 H   0  0  0  0  0  0  0  0  0  0  0  0
  -12.4577   -4.0399  -20.5036 H   0  0  0  0  0  0  0  0  0  0  0  0
  -13.0118   -4.6973  -22.0628 H   0  0  0  0  0  0  0  0  0  0  0  0
  -13.4517   -3.1118  -23.8370 H   0  0  0  0  0  0  0  0  0  0  0  0
  -13.8729   -0.3703  -23.5269 H   0  0  0  0  0  0  0  0  0  0  0  0
  -14.9034   -1.4187  -24.5500 H   0  0  0  0  0  0  0  0  0  0  0  0
  -15.3314   -1.0848  -22.8458 H   0  0  0  0  0  0  0  0  0  0  0  0
  1  2  1  0
  2  3  1  0
  3  4  2  0
  3  5  1  0
  5  6  1  0
  6  7  1  0
  8  7  1  1
  8  9  1  0
  9 10  2  0
  9 11  1  0
 11 12  1  0
 12 13  2  0
 13 14  1  0
 14 15  2  0
 15 16  1  0
 16 17  2  0
 17 18  1  0
 18 19  2  0
 19 20  1  0
 20 21  2  0
 20 22  1  0
 19 23  1  0
 18 24  1  0
 17 25  1  0
 15 26  1  0
 13 27  1  0
 11 28  1  0
 28 29  1  0
 29 30  1  0
 30 31  1  0
 30 32  1  0
 30 33  1  0
 29 34  1  0
 34 35  1  0
 34 36  1  0
 34 37  1  0
 28 38  1  0
 28 39  1  0
  8 40  1  0
 40 41  2  0
 41 42  1  0
 42 43  1  0
 42 44  2  0
 44 45  1  0
 45 46  2  0
 46 47  1  0
 47 48  2  0
 45 49  1  0
 44 50  1  0
 41 51  1  0
  7 52  1  0
  7 53  1  0
  5 54  1  0
  5 55  1  0
  2 56  1  0
  1 57  1  0
  1 58  1  0
  1 59  1  0
 47  6  1  0
 29  8  1  0
 46 40  1  0
 21 12  1  0
 21 16  1  0
M  END
>  <cnnaffinities>  (55) 
[6.58528]

>  <score>  (55) 
6.58528

>  <index>  (55) 
57

>  <Smiles>  (55) 
C(N(C(=O)C(N1C([C@@]2(C(=O)N(c3c(nc(c4c(c(c(c(c34)[H])[H])[H])[H])[H])[H])C(C2(C([H])([H])[H])C([H])([H])[H])([H])[H])c2c(c(Cl)c(c(c2C1=O)[H])[H])[H])([H])[H])([H])[H])[H])([H])([H])[H]

>  <h>  (55) 
<NA>

>  <Training>  (55) 
True

>  <Success>  (55) 
True

>  <enamine_searched>  (55) 
False

>  <enamine_id>  (55) 
nan

$$$$

     RDKit          3D

 42 45  0  0  0  0  0  0  0  0999 V2000
  -10.8311   -3.7649  -21.6922 C   0  0  0  0  0  0  0  0  0  0  0  0
   -9.8992   -3.2179  -22.6677 N   0  0  0  0  0  0  0  0  0  0  0  0
  -10.0148   -1.8589  -23.1798 C   0  0  0  0  0  0  0  0  0  0  0  0
   -8.6448   -1.1874  -23.4690 C   0  0  1  0  0  0  0  0  0  0  0  0
   -8.0894   -0.5448  -22.1795 C   0  0  0  0  0  0  0  0  0  0  0  0
   -8.2973    0.6234  -21.9014 O   0  0  0  0  0  0  0  0  0  0  0  0
   -7.3655   -1.3576  -21.3458 N   0  0  0  0  0  0  0  0  0  0  0  0
   -6.5981   -0.8106  -20.2876 C   0  0  0  0  0  0  0  0  0  0  0  0
   -6.9616   -1.0276  -18.9832 C   0  0  0  0  0  0  0  0  0  0  0  0
   -6.3172   -0.4900  -17.9175 N   0  0  0  0  0  0  0  0  0  0  0  0
   -5.2645    0.2488  -18.1532 C   0  0  0  0  0  0  0  0  0  0  0  0
   -4.7653    0.5329  -19.4520 C   0  0  0  0  0  0  0  0  0  0  0  0
   -3.6214    1.3489  -19.6511 C   0  0  0  0  0  0  0  0  0  0  0  0
   -3.1660    1.6040  -20.9156 C   0  0  0  0  0  0  0  0  0  0  0  0
   -3.8246    1.0402  -22.0335 C   0  0  0  0  0  0  0  0  0  0  0  0
   -4.9256    0.2367  -21.8682 C   0  0  0  0  0  0  0  0  0  0  0  0
   -5.4421   -0.0170  -20.5620 C   0  0  0  0  0  0  0  0  0  0  0  0
   -5.4130   -0.2184  -22.7278 H   0  0  0  0  0  0  0  0  0  0  0  0
   -3.4583    1.2549  -23.0330 H   0  0  0  0  0  0  0  0  0  0  0  0
   -2.3036    2.2483  -21.0679 H   0  0  0  0  0  0  0  0  0  0  0  0
   -3.1282    1.7620  -18.7767 H   0  0  0  0  0  0  0  0  0  0  0  0
   -4.7486    0.6704  -17.2887 H   0  0  0  0  0  0  0  0  0  0  0  0
   -7.8323   -1.6364  -18.7409 H   0  0  0  0  0  0  0  0  0  0  0  0
   -7.4391   -2.3623  -21.4206 H   0  0  0  0  0  0  0  0  0  0  0  0
   -7.7238   -2.1486  -24.1921 C   0  0  0  0  0  0  0  0  0  0  0  0
   -6.7476   -1.6954  -25.0941 C   0  0  0  0  0  0  0  0  0  0  0  0
   -5.9190   -2.6154  -25.7254 C   0  0  0  0  0  0  0  0  0  0  0  0
   -4.7124   -2.0534  -26.8513 Cl  0  0  0  0  0  0  0  0  0  0  0  0
   -6.0284   -3.9839  -25.4819 C   0  0  0  0  0  0  0  0  0  0  0  0
   -6.9973   -4.4322  -24.5999 C   0  0  0  0  0  0  0  0  0  0  0  0
   -7.8495   -3.5203  -23.9689 C   0  0  0  0  0  0  0  0  0  0  0  0
   -8.8894   -4.0603  -23.0315 C   0  0  0  0  0  0  0  0  0  0  0  0
   -8.8239   -5.2023  -22.5897 O   0  0  0  0  0  0  0  0  0  0  0  0
   -7.1129   -5.4953  -24.4002 H   0  0  0  0  0  0  0  0  0  0  0  0
   -5.3575   -4.6772  -25.9817 H   0  0  0  0  0  0  0  0  0  0  0  0
   -6.6349   -0.6364  -25.3231 H   0  0  0  0  0  0  0  0  0  0  0  0
   -8.8064   -0.3098  -24.1060 H   0  0  0  0  0  0  0  0  0  0  0  0
  -10.5412   -1.2407  -22.4400 H   0  0  0  0  0  0  0  0  0  0  0  0
  -10.5978   -1.8595  -24.1092 H   0  0  0  0  0  0  0  0  0  0  0  0
  -11.4045   -4.6004  -22.1133 H   0  0  0  0  0  0  0  0  0  0  0  0
  -10.2414   -4.1398  -20.8485 H   0  0  0  0  0  0  0  0  0  0  0  0
  -11.5132   -2.9823  -21.3491 H   0  0  0  0  0  0  0  0  0  0  0  0
  1  2  1  0
  2  3  1  0
  3  4  1  0
  4  5  1  0
  5  6  2  0
  5  7  1  0
  7  8  1  0
  8  9  2  0
  9 10  1  0
 10 11  2  0
 11 12  1  0
 12 13  2  0
 13 14  1  0
 14 15  2  0
 15 16  1  0
 16 17  2  0
 16 18  1  0
 15 19  1  0
 14 20  1  0
 13 21  1  0
 11 22  1  0
  9 23  1  0
  7 24  1  0
  4 25  1  0
 25 26  2  0
 26 27  1  0
 27 28  1  0
 27 29  2  0
 29 30  1  0
 30 31  2  0
 31 32  1  0
 32 33  2  0
 30 34  1  0
 29 35  1  0
 26 36  1  0
  4 37  1  6
  3 38  1  0
  3 39  1  0
  1 40  1  0
  1 41  1  0
  1 42  1  0
 32  2  1  0
 17  8  1  0
 31 25  1  0
 17 12  1  0
M  END
>  <cnnaffinities>  (56) 
[5.69724, 5.41122, 5.56683]

>  <score>  (56) 
5.69724

>  <index>  (56) 
58

>  <Smiles>  (56) 
C(N1C([C@@](C(=O)N(c2c(nc(c3c(c(c(c(c23)[H])[H])[H])[H])[H])[H])[H])(c2c(c(Cl)c(c(c2C1=O)[H])[H])[H])[H])([H])[H])([H])([H])[H]

>  <h>  (56) 
<NA>

>  <Training>  (56) 
True

>  <Success>  (56) 
True

>  <enamine_searched>  (56) 
False

>  <enamine_id>  (56) 
nan

$$$$

     RDKit          3D

 60 65  0  0  0  0  0  0  0  0999 V2000
   -7.5419   -5.2293  -27.6382 C   0  0  0  0  0  0  0  0  0  0  0  0
   -8.0591   -3.8891  -27.4184 N   0  0  0  0  0  0  0  0  0  0  0  0
   -7.1885   -2.8446  -27.4255 C   0  0  0  0  0  0  0  0  0  0  0  0
   -6.0295   -2.9605  -27.8037 O   0  0  0  0  0  0  0  0  0  0  0  0
   -7.7337   -1.4904  -26.9569 C   0  0  0  0  0  0  0  0  0  0  0  0
   -8.5423   -1.5366  -25.7413 N   0  0  0  0  0  0  0  0  0  0  0  0
   -7.9436   -1.0929  -24.4797 C   0  0  0  0  0  0  0  0  0  0  0  0
   -8.7451   -1.5065  -23.2075 C   0  0  2  0  0  0  0  0  0  0  0  0
   -8.2493   -0.6019  -22.0626 C   0  0  0  0  0  0  0  0  0  0  0  0
   -8.4580    0.5846  -21.9095 O   0  0  0  0  0  0  0  0  0  0  0  0
   -7.4410   -1.3479  -21.2270 N   0  0  0  0  0  0  0  0  0  0  0  0
   -6.6261   -0.7677  -20.2269 C   0  0  0  0  0  0  0  0  0  0  0  0
   -6.9278   -1.0147  -18.9148 C   0  0  0  0  0  0  0  0  0  0  0  0
   -6.2519   -0.5022  -17.8625 N   0  0  0  0  0  0  0  0  0  0  0  0
   -5.2075    0.2431  -18.1221 C   0  0  0  0  0  0  0  0  0  0  0  0
   -4.7536    0.5380  -19.4374 C   0  0  0  0  0  0  0  0  0  0  0  0
   -3.6096    1.3461  -19.6559 C   0  0  0  0  0  0  0  0  0  0  0  0
   -3.1878    1.6154  -20.9271 C   0  0  0  0  0  0  0  0  0  0  0  0
   -3.8785    1.0762  -22.0357 C   0  0  0  0  0  0  0  0  0  0  0  0
   -4.9866    0.2864  -21.8516 C   0  0  0  0  0  0  0  0  0  0  0  0
   -5.4665    0.0134  -20.5372 C   0  0  0  0  0  0  0  0  0  0  0  0
   -5.5027   -0.1293  -22.7140 H   0  0  0  0  0  0  0  0  0  0  0  0
   -3.5272    1.2972  -23.0382 H   0  0  0  0  0  0  0  0  0  0  0  0
   -2.3203    2.2469  -21.0914 H   0  0  0  0  0  0  0  0  0  0  0  0
   -3.0904    1.7482  -18.7911 H   0  0  0  0  0  0  0  0  0  0  0  0
   -4.6585    0.6478  -17.2717 H   0  0  0  0  0  0  0  0  0  0  0  0
   -7.7787   -1.6519  -18.6802 H   0  0  0  0  0  0  0  0  0  0  0  0
   -7.2224   -2.7093  -21.6577 C   0  0  0  0  0  0  0  0  0  0  0  0
   -8.3713   -2.9346  -22.6468 C   0  0  2  0  0  0  0  0  0  0  0  0
   -8.1238   -4.0646  -23.6677 C   0  0  0  0  0  0  0  0  0  0  0  0
   -6.6852   -4.4520  -23.9213 C   0  0  0  0  0  0  0  0  0  0  0  0
   -5.7342   -3.7160  -24.4857 N   0  0  0  0  0  0  0  0  0  0  0  0
   -4.6373   -4.4814  -24.4621 N   0  0  0  0  0  0  0  0  0  0  0  0
   -4.9257   -5.6244  -23.9069 N   0  0  0  0  0  2  0  0  0  0  0  0
   -6.2108   -5.6370  -23.5596 N   0  0  0  0  0  0  0  0  0  0  0  0
   -8.5924   -3.8128  -24.6174 H   0  0  0  0  0  0  0  0  0  0  0  0
   -8.6039   -4.9730  -23.3001 H   0  0  0  0  0  0  0  0  0  0  0  0
   -9.2510   -3.2230  -22.0514 H   0  0  0  0  0  0  0  0  0  0  0  0
   -7.2606   -3.3793  -20.7985 H   0  0  0  0  0  0  0  0  0  0  0  0
   -6.2344   -2.8387  -22.1213 H   0  0  0  0  0  0  0  0  0  0  0  0
  -10.2459   -1.3857  -23.4588 C   0  0  0  0  0  0  0  0  0  0  0  0
  -11.1727   -1.3749  -22.3996 C   0  0  0  0  0  0  0  0  0  0  0  0
  -12.5401   -1.4190  -22.6626 C   0  0  0  0  0  0  0  0  0  0  0  0
  -13.7162   -1.6562  -21.3997 Cl  0  0  0  0  0  0  0  0  0  0  0  0
  -13.0354   -1.3725  -23.9628 C   0  0  0  0  0  0  0  0  0  0  0  0
  -12.1341   -1.4260  -24.9959 C   0  0  0  0  0  0  0  0  0  0  0  0
  -10.7665   -1.4391  -24.7521 C   0  0  0  0  0  0  0  0  0  0  0  0
   -9.8906   -1.6225  -25.9366 C   0  0  0  0  0  0  0  0  0  0  0  0
  -10.3502   -1.9030  -27.0407 O   0  0  0  0  0  0  0  0  0  0  0  0
  -12.4333   -1.5323  -26.0282 H   0  0  0  0  0  0  0  0  0  0  0  0
  -14.1014   -1.3265  -24.1545 H   0  0  0  0  0  0  0  0  0  0  0  0
  -10.8356   -1.3260  -21.3712 H   0  0  0  0  0  0  0  0  0  0  0  0
   -7.8375    0.0010  -24.4925 H   0  0  0  0  0  0  0  0  0  0  0  0
   -6.9366   -1.5252  -24.4101 H   0  0  0  0  0  0  0  0  0  0  0  0
   -6.8860   -0.8098  -26.8356 H   0  0  0  0  0  0  0  0  0  0  0  0
   -8.3638   -1.0941  -27.7628 H   0  0  0  0  0  0  0  0  0  0  0  0
   -9.0535   -3.7222  -27.3544 H   0  0  0  0  0  0  0  0  0  0  0  0
   -6.9856   -5.2765  -28.5807 H   0  0  0  0  0  0  0  0  0  0  0  0
   -8.3745   -5.9364  -27.6743 H   0  0  0  0  0  0  0  0  0  0  0  0
   -6.8710   -5.5153  -26.8149 H   0  0  0  0  0  0  0  0  0  0  0  0
  1  2  1  0
  2  3  1  0
  3  4  2  0
  3  5  1  0
  5  6  1  0
  6  7  1  0
  8  7  1  6
  8  9  1  0
  9 10  2  0
  9 11  1  0
 11 12  1  0
 12 13  2  0
 13 14  1  0
 14 15  2  0
 15 16  1  0
 16 17  2  0
 17 18  1  0
 18 19  2  0
 19 20  1  0
 20 21  2  0
 20 22  1  0
 19 23  1  0
 18 24  1  0
 17 25  1  0
 15 26  1  0
 13 27  1  0
 11 28  1  0
 28 29  1  0
 29 30  1  0
 30 31  1  0
 31 32  1  0
 32 33  2  0
 33 34  1  0
 34 35  1  0
 30 36  1  0
 30 37  1  0
 29 38  1  1
 28 39  1  0
 28 40  1  0
  8 41  1  0
 41 42  2  0
 42 43  1  0
 43 44  1  0
 43 45  2  0
 45 46  1  0
 46 47  2  0
 47 48  1  0
 48 49  2  0
 46 50  1  0
 45 51  1  0
 42 52  1  0
  7 53  1  0
  7 54  1  0
  5 55  1  0
  5 56  1  0
  2 57  1  0
  1 58  1  0
  1 59  1  0
  1 60  1  0
 48  6  1  0
 29  8  1  0
 35 31  2  0
 47 41  1  0
 21 12  1  0
 21 16  1  0
M  CHG  1  34  -1
M  END
>  <cnnaffinities>  (57) 
[6.4233, 6.39119, 6.88119]

>  <score>  (57) 
6.4233

>  <index>  (57) 
59

>  <Smiles>  (57) 
C(N(C(=O)C(N1C([C@@]2(C(=O)N(c3c(nc(c4c(c(c(c(c34)[H])[H])[H])[H])[H])[H])C([C@@]2(C(c2nn[n-]n2)([H])[H])[H])([H])[H])c2c(c(Cl)c(c(c2C1=O)[H])[H])[H])([H])[H])([H])[H])[H])([H])([H])[H]

>  <h>  (57) 
<NA>

>  <Training>  (57) 
True

>  <Success>  (57) 
True

>  <enamine_searched>  (57) 
False

>  <enamine_id>  (57) 
nan

$$$$

     RDKit          3D

 62 67  0  0  0  0  0  0  0  0999 V2000
  -11.3122    4.3969  -25.1794 C   0  0  0  0  0  0  0  0  0  0  0  0
   -9.8310    4.1686  -25.5049 C   0  0  0  0  0  0  0  0  0  0  0  0
   -9.0598    3.5802  -24.4127 N   0  0  0  0  0  0  0  0  0  0  0  0
   -8.4940    4.4167  -23.5245 N   0  0  0  0  0  0  0  0  0  0  0  0
   -7.9007    3.6398  -22.6284 C   0  0  0  0  0  0  0  0  0  0  0  0
   -8.0894    2.2781  -22.9411 C   0  0  0  0  0  0  0  0  0  0  0  0
   -8.8418    2.2710  -24.0911 C   0  0  0  0  0  0  0  0  0  0  0  0
   -9.2276    1.0618  -24.8873 C   0  0  0  0  0  0  0  0  0  0  0  0
   -9.8279   -0.0074  -24.0957 N   0  0  0  0  0  0  0  0  0  0  0  0
   -9.0394   -1.2188  -23.9703 C   0  0  0  0  0  0  0  0  0  0  0  0
   -9.2251   -1.9264  -22.6084 C   0  0  2  0  0  0  0  0  0  0  0  0
   -8.6637   -1.0336  -21.4653 C   0  0  0  0  0  0  0  0  0  0  0  0
   -9.2281   -0.1126  -20.9099 O   0  0  0  0  0  0  0  0  0  0  0  0
   -7.3753   -1.4350  -21.1964 N   0  0  0  0  0  0  0  0  0  0  0  0
   -6.6000   -0.8228  -20.1772 C   0  0  0  0  0  0  0  0  0  0  0  0
   -6.9139   -1.0321  -18.8581 C   0  0  0  0  0  0  0  0  0  0  0  0
   -6.2171   -0.5098  -17.8231 N   0  0  0  0  0  0  0  0  0  0  0  0
   -5.1689    0.2245  -18.0913 C   0  0  0  0  0  0  0  0  0  0  0  0
   -4.7286    0.5268  -19.4087 C   0  0  0  0  0  0  0  0  0  0  0  0
   -3.6022    1.3601  -19.6456 C   0  0  0  0  0  0  0  0  0  0  0  0
   -3.2239    1.6613  -20.9246 C   0  0  0  0  0  0  0  0  0  0  0  0
   -3.9538    1.1383  -22.0162 C   0  0  0  0  0  0  0  0  0  0  0  0
   -5.0464    0.3274  -21.8094 C   0  0  0  0  0  0  0  0  0  0  0  0
   -5.4630   -0.0052  -20.4926 C   0  0  0  0  0  0  0  0  0  0  0  0
   -5.6022   -0.0601  -22.6575 H   0  0  0  0  0  0  0  0  0  0  0  0
   -3.6558    1.3914  -23.0285 H   0  0  0  0  0  0  0  0  0  0  0  0
   -2.3758    2.3169  -21.1060 H   0  0  0  0  0  0  0  0  0  0  0  0
   -3.0734    1.7695  -18.7892 H   0  0  0  0  0  0  0  0  0  0  0  0
   -4.6152    0.6209  -17.2401 H   0  0  0  0  0  0  0  0  0  0  0  0
   -7.7546   -1.6652  -18.5843 H   0  0  0  0  0  0  0  0  0  0  0  0
   -6.9628   -2.6161  -21.9347 C   0  0  0  0  0  0  0  0  0  0  0  0
   -8.2897   -3.1675  -22.5038 C   0  0  2  0  0  0  0  0  0  0  0  0
   -8.0945   -3.9888  -23.7807 C   0  0  0  0  0  0  0  0  0  0  0  0
   -7.5572   -3.4113  -24.5434 H   0  0  0  0  0  0  0  0  0  0  0  0
   -7.5055   -4.8908  -23.5827 H   0  0  0  0  0  0  0  0  0  0  0  0
   -9.0494   -4.3000  -24.2186 H   0  0  0  0  0  0  0  0  0  0  0  0
   -8.7266   -3.8057  -21.7297 H   0  0  0  0  0  0  0  0  0  0  0  0
   -6.4585   -3.3250  -21.2689 H   0  0  0  0  0  0  0  0  0  0  0  0
   -6.2561   -2.3643  -22.7406 H   0  0  0  0  0  0  0  0  0  0  0  0
  -10.7130   -2.1604  -22.4293 C   0  0  0  0  0  0  0  0  0  0  0  0
  -11.2319   -3.2369  -21.6984 C   0  0  0  0  0  0  0  0  0  0  0  0
  -12.5890   -3.2835  -21.4464 C   0  0  0  0  0  0  0  0  0  0  0  0
  -13.0869   -4.2319  -20.6390 F   0  0  0  0  0  0  0  0  0  0  0  0
  -13.4827   -2.3466  -21.9429 C   0  0  0  0  0  0  0  0  0  0  0  0
  -12.9763   -1.2806  -22.6561 C   0  0  0  0  0  0  0  0  0  0  0  0
  -11.6020   -1.1793  -22.8930 C   0  0  0  0  0  0  0  0  0  0  0  0
  -11.1056    0.0507  -23.6092 C   0  0  0  0  0  0  0  0  0  0  0  0
  -11.8409    1.0223  -23.7188 O   0  0  0  0  0  0  0  0  0  0  0  0
  -13.6250   -0.4916  -23.0192 H   0  0  0  0  0  0  0  0  0  0  0  0
  -14.5367   -2.4776  -21.7223 H   0  0  0  0  0  0  0  0  0  0  0  0
  -10.5984   -3.9988  -21.2593 H   0  0  0  0  0  0  0  0  0  0  0  0
   -9.2993   -1.9246  -24.7733 H   0  0  0  0  0  0  0  0  0  0  0  0
   -7.9884   -0.9317  -24.0716 H   0  0  0  0  0  0  0  0  0  0  0  0
   -9.8283    1.3414  -25.7430 H   0  0  0  0  0  0  0  0  0  0  0  0
   -8.3262    0.6154  -25.3162 H   0  0  0  0  0  0  0  0  0  0  0  0
   -7.7566    1.3872  -22.4261 H   0  0  0  0  0  0  0  0  0  0  0  0
   -7.3618    4.1054  -21.8072 H   0  0  0  0  0  0  0  0  0  0  0  0
   -9.3400    5.1255  -25.7070 H   0  0  0  0  0  0  0  0  0  0  0  0
   -9.6859    3.5452  -26.3949 H   0  0  0  0  0  0  0  0  0  0  0  0
  -11.8329    3.4899  -24.8632 H   0  0  0  0  0  0  0  0  0  0  0  0
  -11.4213    5.1271  -24.3721 H   0  0  0  0  0  0  0  0  0  0  0  0
  -11.8122    4.7951  -26.0684 H   0  0  0  0  0  0  0  0  0  0  0  0
  1  2  1  0
  2  3  1  0
  3  4  1  0
  4  5  2  0
  5  6  1  0
  6  7  2  0
  7  8  1  0
  8  9  1  0
  9 10  1  0
 11 10  1  6
 11 12  1  0
 12 13  2  0
 12 14  1  0
 14 15  1  0
 15 16  2  0
 16 17  1  0
 17 18  2  0
 18 19  1  0
 19 20  2  0
 20 21  1  0
 21 22  2  0
 22 23  1  0
 23 24  2  0
 23 25  1  0
 22 26  1  0
 21 27  1  0
 20 28  1  0
 18 29  1  0
 16 30  1  0
 14 31  1  0
 31 32  1  0
 32 33  1  0
 33 34  1  0
 33 35  1  0
 33 36  1  0
 32 37  1  1
 31 38  1  0
 31 39  1  0
 11 40  1  0
 40 41  2  0
 41 42  1  0
 42 43  1  0
 42 44  2  0
 44 45  1  0
 45 46  2  0
 46 47  1  0
 47 48  2  0
 45 49  1  0
 44 50  1  0
 41 51  1  0
 10 52  1  0
 10 53  1  0
  8 54  1  0
  8 55  1  0
  6 56  1  0
  5 57  1  0
  2 58  1  0
  2 59  1  0
  1 60  1  0
  1 61  1  0
  1 62  1  0
  7  3  1  0
 47  9  1  0
 32 11  1  0
 46 40  1  0
 24 15  1  0
 24 19  1  0
M  END
>  <cnnaffinities>  (58) 
[6.92718, 6.38431, 6.54882, 6.42632, 6.41851, 6.33364]

>  <score>  (58) 
6.92718

>  <index>  (58) 
60

>  <Smiles>  (58) 
C(C(n1nc(c(c1C(N1C([C@@]2(C(=O)N(c3c(nc(c4c(c(c(c(c34)[H])[H])[H])[H])[H])[H])C([C@@]2(C([H])([H])[H])[H])([H])[H])c2c(c(F)c(c(c2C1=O)[H])[H])[H])([H])[H])([H])[H])[H])[H])([H])[H])([H])([H])[H]

>  <h>  (58) 
<NA>

>  <Training>  (58) 
True

>  <Success>  (58) 
True

>  <enamine_searched>  (58) 
False

>  <enamine_id>  (58) 
nan

$$$$

     RDKit          3D

 44 47  0  0  0  0  0  0  0  0999 V2000
   -5.8663   -3.3067  -21.2818 O   0  0  0  0  0  0  0  0  0  0  0  0
   -6.6938   -2.6840  -21.9270 C   0  0  0  0  0  0  0  0  0  0  0  0
   -7.3969   -1.4611  -21.2870 C   0  0  0  0  0  0  0  0  0  0  0  0
   -6.5772   -0.8291  -20.1876 C   0  0  0  0  0  0  0  0  0  0  0  0
   -6.8728   -1.0424  -18.8650 C   0  0  0  0  0  0  0  0  0  0  0  0
   -6.1958   -0.5168  -17.8120 N   0  0  0  0  0  0  0  0  0  0  0  0
   -5.1533    0.2311  -18.0695 C   0  0  0  0  0  0  0  0  0  0  0  0
   -4.7164    0.5335  -19.3865 C   0  0  0  0  0  0  0  0  0  0  0  0
   -3.5884    1.3597  -19.6235 C   0  0  0  0  0  0  0  0  0  0  0  0
   -3.1916    1.6384  -20.9038 C   0  0  0  0  0  0  0  0  0  0  0  0
   -3.9070    1.0971  -21.9940 C   0  0  0  0  0  0  0  0  0  0  0  0
   -5.0037    0.2966  -21.7868 C   0  0  0  0  0  0  0  0  0  0  0  0
   -5.4448   -0.0065  -20.4722 C   0  0  0  0  0  0  0  0  0  0  0  0
   -5.5370   -0.1090  -22.6398 H   0  0  0  0  0  0  0  0  0  0  0  0
   -3.5872    1.3236  -23.0054 H   0  0  0  0  0  0  0  0  0  0  0  0
   -2.3333    2.2767  -21.0889 H   0  0  0  0  0  0  0  0  0  0  0  0
   -3.0524    1.7748  -18.7743 H   0  0  0  0  0  0  0  0  0  0  0  0
   -4.5996    0.6288  -17.2172 H   0  0  0  0  0  0  0  0  0  0  0  0
   -7.7185   -1.6697  -18.5870 H   0  0  0  0  0  0  0  0  0  0  0  0
   -8.3349   -1.8263  -20.8461 H   0  0  0  0  0  0  0  0  0  0  0  0
   -7.6872   -0.6998  -22.0209 H   0  0  0  0  0  0  0  0  0  0  0  0
   -7.0459   -3.0668  -23.1954 N   0  0  0  0  0  0  0  0  0  0  0  0
   -6.6676   -4.4022  -23.6640 C   0  0  0  0  0  0  0  0  0  0  0  0
   -7.8180   -5.0362  -24.4340 C   0  0  0  0  0  0  0  0  0  0  0  0
   -8.2728   -4.2032  -25.6414 C   0  0  0  0  0  0  0  0  0  0  0  0
   -8.0324   -4.8557  -27.0307 C   0  0  0  0  0  0  0  0  0  0  0  0
   -9.5456   -4.9269  -27.2912 C   0  0  0  0  0  0  0  0  0  0  0  0
   -9.8011   -4.2865  -25.9169 C   0  0  0  0  0  0  0  0  0  0  0  0
  -10.3055   -3.3191  -25.9467 H   0  0  0  0  0  0  0  0  0  0  0  0
  -10.3427   -4.9254  -25.2175 H   0  0  0  0  0  0  0  0  0  0  0  0
   -9.8852   -4.3319  -28.1399 H   0  0  0  0  0  0  0  0  0  0  0  0
   -9.9363   -5.9397  -27.3933 H   0  0  0  0  0  0  0  0  0  0  0  0
   -7.4845   -4.2216  -27.7287 H   0  0  0  0  0  0  0  0  0  0  0  0
   -7.5274   -5.8221  -26.9903 H   0  0  0  0  0  0  0  0  0  0  0  0
   -7.7283   -2.7763  -25.5536 C   0  0  0  0  0  0  0  0  0  0  0  0
   -7.7419   -2.1981  -24.1419 C   0  0  0  0  0  0  0  0  0  0  0  0
   -8.7762   -2.0286  -23.8226 H   0  0  0  0  0  0  0  0  0  0  0  0
   -7.2629   -1.2115  -24.1739 H   0  0  0  0  0  0  0  0  0  0  0  0
   -6.7108   -2.7372  -25.9628 H   0  0  0  0  0  0  0  0  0  0  0  0
   -8.3053   -2.1257  -26.2175 H   0  0  0  0  0  0  0  0  0  0  0  0
   -7.5454   -6.0470  -24.7534 H   0  0  0  0  0  0  0  0  0  0  0  0
   -8.6543   -5.1727  -23.7380 H   0  0  0  0  0  0  0  0  0  0  0  0
   -6.4074   -5.0123  -22.8007 H   0  0  0  0  0  0  0  0  0  0  0  0
   -5.7710   -4.3619  -24.2940 H   0  0  0  0  0  0  0  0  0  0  0  0
  1  2  2  0
  2  3  1  0
  3  4  1  0
  4  5  2  0
  5  6  1  0
  6  7  2  0
  7  8  1  0
  8  9  2  0
  9 10  1  0
 10 11  2  0
 11 12  1  0
 12 13  2  0
 12 14  1  0
 11 15  1  0
 10 16  1  0
  9 17  1  0
  7 18  1  0
  5 19  1  0
  3 20  1  0
  3 21  1  0
  2 22  1  0
 22 23  1  0
 23 24  1  0
 24 25  1  0
 25 26  1  0
 26 27  1  0
 27 28  1  0
 28 29  1  0
 28 30  1  0
 27 31  1  0
 27 32  1  0
 26 33  1  0
 26 34  1  0
 25 35  1  0
 35 36  1  0
 36 37  1  0
 36 38  1  0
 35 39  1  0
 35 40  1  0
 24 41  1  0
 24 42  1  0
 23 43  1  0
 23 44  1  0
 13  4  1  0
 36 22  1  0
 13  8  1  0
 28 25  1  0
M  END
>  <cnnaffinities>  (59) 
[5.27779, 5.27814, 5.27825, 5.27693, 4.95645, 4.95519, 4.95429, 4.5742]

>  <score>  (59) 
5.27779

>  <index>  (59) 
61

>  <Smiles>  (59) 
O=C(C(c1c(nc(c2c(c(c(c(c12)[H])[H])[H])[H])[H])[H])([H])[H])N1C(C(C2(C(C(C2([H])[H])([H])[H])([H])[H])C(C1([H])[H])([H])[H])([H])[H])([H])[H]

>  <h>  (59) 
<NA>

>  <Training>  (59) 
True

>  <Success>  (59) 
True

>  <enamine_searched>  (59) 
False

>  <enamine_id>  (59) 
nan

$$$$

     RDKit          3D

 44 47  0  0  0  0  0  0  0  0999 V2000
   -8.4633    0.7477  -21.4982 O   0  0  0  0  0  0  0  0  0  0  0  0
   -8.5272   -0.4405  -21.7796 C   0  0  0  0  0  0  0  0  0  0  0  0
   -7.4644   -1.4248  -21.2813 C   0  0  0  0  0  0  0  0  0  0  0  0
   -6.5975   -0.8237  -20.2072 C   0  0  0  0  0  0  0  0  0  0  0  0
   -6.9150   -1.0160  -18.8877 C   0  0  0  0  0  0  0  0  0  0  0  0
   -6.2439   -0.4881  -17.8314 N   0  0  0  0  0  0  0  0  0  0  0  0
   -5.1892    0.2409  -18.0946 C   0  0  0  0  0  0  0  0  0  0  0  0
   -4.7398    0.5318  -19.4085 C   0  0  0  0  0  0  0  0  0  0  0  0
   -3.6066    1.3497  -19.6393 C   0  0  0  0  0  0  0  0  0  0  0  0
   -3.2146    1.6459  -20.9164 C   0  0  0  0  0  0  0  0  0  0  0  0
   -3.9400    1.1289  -22.0154 C   0  0  0  0  0  0  0  0  0  0  0  0
   -5.0404    0.3305  -21.8145 C   0  0  0  0  0  0  0  0  0  0  0  0
   -5.4714    0.0032  -20.5012 C   0  0  0  0  0  0  0  0  0  0  0  0
   -5.6060   -0.0402  -22.6646 H   0  0  0  0  0  0  0  0  0  0  0  0
   -3.6248    1.3777  -23.0265 H   0  0  0  0  0  0  0  0  0  0  0  0
   -2.3605    2.2958  -21.0917 H   0  0  0  0  0  0  0  0  0  0  0  0
   -3.0775    1.7507  -18.7754 H   0  0  0  0  0  0  0  0  0  0  0  0
   -4.6258    0.6442  -17.2491 H   0  0  0  0  0  0  0  0  0  0  0  0
   -7.7592   -1.6513  -18.6141 H   0  0  0  0  0  0  0  0  0  0  0  0
   -7.9974   -2.2904  -20.8696 H   0  0  0  0  0  0  0  0  0  0  0  0
   -6.8770   -1.8026  -22.1304 H   0  0  0  0  0  0  0  0  0  0  0  0
   -9.5739   -0.9559  -22.4979 N   0  0  0  0  0  0  0  0  0  0  0  0
  -10.6266   -0.0097  -22.8569 C   0  0  0  0  0  0  0  0  0  0  0  0
  -11.9113   -0.7433  -23.2741 C   0  0  0  0  0  0  0  0  0  0  0  0
  -12.1007   -2.1063  -22.5834 C   0  0  0  0  0  0  0  0  0  0  0  0
  -13.3830   -2.7826  -23.0194 C   0  0  0  0  0  0  0  0  0  0  0  0
  -14.6800   -2.4343  -22.3701 C   0  0  0  0  0  0  0  0  0  0  0  0
  -14.0736   -3.7917  -22.1466 C   0  0  0  0  0  0  0  0  0  0  0  0
  -13.6192   -4.0131  -21.1833 H   0  0  0  0  0  0  0  0  0  0  0  0
  -14.5585   -4.6503  -22.5988 H   0  0  0  0  0  0  0  0  0  0  0  0
  -14.6890   -1.7237  -21.5479 H   0  0  0  0  0  0  0  0  0  0  0  0
  -15.5205   -2.3479  -23.0453 H   0  0  0  0  0  0  0  0  0  0  0  0
  -13.4524   -2.9665  -24.0903 H   0  0  0  0  0  0  0  0  0  0  0  0
  -10.8881   -3.0349  -22.7920 C   0  0  0  0  0  0  0  0  0  0  0  0
   -9.6298   -2.2472  -23.1812 C   0  0  0  0  0  0  0  0  0  0  0  0
   -9.6435   -2.0812  -24.2696 H   0  0  0  0  0  0  0  0  0  0  0  0
   -8.7235   -2.8177  -22.9674 H   0  0  0  0  0  0  0  0  0  0  0  0
  -10.7229   -3.6161  -21.8771 H   0  0  0  0  0  0  0  0  0  0  0  0
  -11.0894   -3.7654  -23.5854 H   0  0  0  0  0  0  0  0  0  0  0  0
  -12.1780   -1.9130  -21.5114 H   0  0  0  0  0  0  0  0  0  0  0  0
  -12.7814   -0.0958  -23.0932 H   0  0  0  0  0  0  0  0  0  0  0  0
  -11.8657   -0.9053  -24.3570 H   0  0  0  0  0  0  0  0  0  0  0  0
  -10.7791    0.6415  -21.9935 H   0  0  0  0  0  0  0  0  0  0  0  0
  -10.2632    0.6300  -23.6801 H   0  0  0  0  0  0  0  0  0  0  0  0
  1  2  2  0
  2  3  1  0
  3  4  1  0
  4  5  2  0
  5  6  1  0
  6  7  2  0
  7  8  1  0
  8  9  2  0
  9 10  1  0
 10 11  2  0
 11 12  1  0
 12 13  2  0
 12 14  1  0
 11 15  1  0
 10 16  1  0
  9 17  1  0
  7 18  1  0
  5 19  1  0
  3 20  1  0
  3 21  1  0
  2 22  1  0
 22 23  1  0
 23 24  1  0
 24 25  1  0
 25 26  1  0
 26 27  1  0
 27 28  1  0
 28 29  1  0
 28 30  1  0
 27 31  1  0
 27 32  1  0
 26 33  1  0
 25 34  1  0
 34 35  1  0
 35 36  1  0
 35 37  1  0
 34 38  1  0
 34 39  1  0
 25 40  1  0
 24 41  1  0
 24 42  1  0
 23 43  1  0
 23 44  1  0
 13  4  1  0
 35 22  1  0
 13  8  1  0
 28 26  1  0
M  END
>  <cnnaffinities>  (60) 
[5.17713, 5.01628, 5.38092]

>  <score>  (60) 
5.17713

>  <index>  (60) 
62

>  <Smiles>  (60) 
O=C(C(c1c(nc(c2c(c(c(c(c12)[H])[H])[H])[H])[H])[H])([H])[H])N1C(C(C(C2(C(C2([H])[H])([H])[H])[H])(C(C1([H])[H])([H])[H])[H])([H])[H])([H])[H]

>  <h>  (60) 
<NA>

>  <Training>  (60) 
True

>  <Success>  (60) 
True

>  <enamine_searched>  (60) 
False

>  <enamine_id>  (60) 
nan

$$$$

     RDKit          3D

 57 61  0  0  0  0  0  0  0  0999 V2000
   -8.1465   -5.6891  -27.6058 C   0  0  0  0  0  0  0  0  0  0  0  0
   -8.3749   -4.2653  -27.4432 N   0  0  0  0  0  0  0  0  0  0  0  0
   -7.3701   -3.4683  -27.0344 C   0  0  0  0  0  0  0  0  0  0  0  0
   -6.2628   -3.9078  -26.7145 O   0  0  0  0  0  0  0  0  0  0  0  0
   -7.7122   -1.9820  -26.8998 C   0  0  0  0  0  0  0  0  0  0  0  0
   -8.5766   -1.7373  -25.7499 N   0  0  0  0  0  0  0  0  0  0  0  0
   -8.0141   -1.2437  -24.4974 C   0  0  0  0  0  0  0  0  0  0  0  0
   -8.8499   -1.5711  -23.2200 C   0  0  2  0  0  0  0  0  0  0  0  0
   -8.3507   -0.5723  -22.1520 C   0  0  0  0  0  0  0  0  0  0  0  0
   -8.6104    0.6100  -22.0659 O   0  0  0  0  0  0  0  0  0  0  0  0
   -7.4728   -1.2421  -21.3147 N   0  0  0  0  0  0  0  0  0  0  0  0
   -6.6797   -0.6524  -20.2992 C   0  0  0  0  0  0  0  0  0  0  0  0
   -6.9842   -0.9305  -18.9906 C   0  0  0  0  0  0  0  0  0  0  0  0
   -6.3081   -0.4523  -17.9227 N   0  0  0  0  0  0  0  0  0  0  0  0
   -5.2529    0.2840  -18.1664 C   0  0  0  0  0  0  0  0  0  0  0  0
   -4.7736    0.5900  -19.4693 C   0  0  0  0  0  0  0  0  0  0  0  0
   -3.6031    1.3679  -19.6625 C   0  0  0  0  0  0  0  0  0  0  0  0
   -3.1474    1.6256  -20.9242 C   0  0  0  0  0  0  0  0  0  0  0  0
   -3.8250    1.1002  -22.0459 C   0  0  0  0  0  0  0  0  0  0  0  0
   -4.9609    0.3466  -21.8816 C   0  0  0  0  0  0  0  0  0  0  0  0
   -5.4859    0.0933  -20.5846 C   0  0  0  0  0  0  0  0  0  0  0  0
   -5.4607   -0.0646  -22.7524 H   0  0  0  0  0  0  0  0  0  0  0  0
   -3.4462    1.3040  -23.0425 H   0  0  0  0  0  0  0  0  0  0  0  0
   -2.2658    2.2409  -21.0707 H   0  0  0  0  0  0  0  0  0  0  0  0
   -3.0955    1.7620  -18.7865 H   0  0  0  0  0  0  0  0  0  0  0  0
   -4.7154    0.6642  -17.3016 H   0  0  0  0  0  0  0  0  0  0  0  0
   -7.8408   -1.5664  -18.7705 H   0  0  0  0  0  0  0  0  0  0  0  0
   -7.3551   -2.6602  -21.5763 C   0  0  0  0  0  0  0  0  0  0  0  0
   -8.5138   -2.9377  -22.5295 C   0  0  2  0  0  0  0  0  0  0  0  0
   -8.2623   -4.1138  -23.4638 C   0  0  0  0  0  0  0  0  0  0  0  0
   -6.9143   -4.0859  -23.8831 O   0  0  0  0  0  0  0  0  0  0  0  0
   -6.8186   -4.2561  -24.8311 H   0  0  0  0  0  0  0  0  0  0  0  0
   -8.4578   -5.0559  -22.9300 H   0  0  0  0  0  0  0  0  0  0  0  0
   -8.9614   -4.0485  -24.3081 H   0  0  0  0  0  0  0  0  0  0  0  0
   -9.3975   -3.1790  -21.9235 H   0  0  0  0  0  0  0  0  0  0  0  0
   -6.3918   -2.9045  -22.0412 H   0  0  0  0  0  0  0  0  0  0  0  0
   -7.4318   -3.2225  -20.6402 H   0  0  0  0  0  0  0  0  0  0  0  0
  -10.3350   -1.4867  -23.5178 C   0  0  0  0  0  0  0  0  0  0  0  0
  -11.2867   -1.4749  -22.4840 C   0  0  0  0  0  0  0  0  0  0  0  0
  -12.6406   -1.4745  -22.7875 C   0  0  0  0  0  0  0  0  0  0  0  0
  -13.8441   -1.5933  -21.5417 Cl  0  0  0  0  0  0  0  0  0  0  0  0
  -13.0985   -1.5157  -24.1016 C   0  0  0  0  0  0  0  0  0  0  0  0
  -12.1634   -1.5782  -25.1051 C   0  0  0  0  0  0  0  0  0  0  0  0
  -10.8085   -1.5884  -24.8251 C   0  0  0  0  0  0  0  0  0  0  0  0
   -9.9066   -1.8658  -25.9682 C   0  0  0  0  0  0  0  0  0  0  0  0
  -10.3454   -2.2626  -27.0524 O   0  0  0  0  0  0  0  0  0  0  0  0
  -12.4464   -1.6839  -26.1402 H   0  0  0  0  0  0  0  0  0  0  0  0
  -14.1564   -1.5748  -24.3148 H   0  0  0  0  0  0  0  0  0  0  0  0
  -10.9716   -1.5301  -21.4478 H   0  0  0  0  0  0  0  0  0  0  0  0
   -7.0146   -1.6840  -24.3874 H   0  0  0  0  0  0  0  0  0  0  0  0
   -7.9259   -0.1504  -24.5406 H   0  0  0  0  0  0  0  0  0  0  0  0
   -6.7907   -1.4028  -26.8228 H   0  0  0  0  0  0  0  0  0  0  0  0
   -8.2601   -1.6511  -27.7856 H   0  0  0  0  0  0  0  0  0  0  0  0
   -9.2991   -3.8613  -27.5669 H   0  0  0  0  0  0  0  0  0  0  0  0
   -7.7332   -6.1275  -26.6886 H   0  0  0  0  0  0  0  0  0  0  0  0
   -9.0920   -6.1804  -27.8407 H   0  0  0  0  0  0  0  0  0  0  0  0
   -7.4351   -5.8765  -28.4164 H   0  0  0  0  0  0  0  0  0  0  0  0
  1  2  1  0
  2  3  1  0
  3  4  2  0
  3  5  1  0
  5  6  1  0
  6  7  1  0
  8  7  1  6
  8  9  1  0
  9 10  2  0
  9 11  1  0
 11 12  1  0
 12 13  2  0
 13 14  1  0
 14 15  2  0
 15 16  1  0
 16 17  2  0
 17 18  1  0
 18 19  2  0
 19 20  1  0
 20 21  2  0
 20 22  1  0
 19 23  1  0
 18 24  1  0
 17 25  1  0
 15 26  1  0
 13 27  1  0
 11 28  1  0
 28 29  1  0
 29 30  1  0
 30 31  1  0
 31 32  1  0
 30 33  1  0
 30 34  1  0
 29 35  1  1
 28 36  1  0
 28 37  1  0
  8 38  1  0
 38 39  2  0
 39 40  1  0
 40 41  1  0
 40 42  2  0
 42 43  1  0
 43 44  2  0
 44 45  1  0
 45 46  2  0
 43 47  1  0
 42 48  1  0
 39 49  1  0
  7 50  1  0
  7 51  1  0
  5 52  1  0
  5 53  1  0
  2 54  1  0
  1 55  1  0
  1 56  1  0
  1 57  1  0
 45  6  1  0
 29  8  1  0
 44 38  1  0
 21 12  1  0
 21 16  1  0
M  END
>  <cnnaffinities>  (61) 
[5.96529]

>  <score>  (61) 
5.96529

>  <index>  (61) 
63

>  <Smiles>  (61) 
C(N(C(=O)C(N1C([C@@]2(C(=O)N(c3c(nc(c4c(c(c(c(c34)[H])[H])[H])[H])[H])[H])C([C@@]2(C(O[H])([H])[H])[H])([H])[H])c2c(c(Cl)c(c(c2C1=O)[H])[H])[H])([H])[H])([H])[H])[H])([H])([H])[H]

>  <h>  (61) 
<NA>

>  <Training>  (61) 
True

>  <Success>  (61) 
True

>  <enamine_searched>  (61) 
False

>  <enamine_id>  (61) 
nan

$$$$

     RDKit          3D

 55 60  0  0  0  0  0  0  0  0999 V2000
  -10.4807   -1.0896  -23.3091 C   0  0  0  0  0  0  0  0  0  0  0  0
   -9.0338   -1.4293  -22.9720 C   0  0  1  0  0  0  0  0  0  0  0  0
   -8.4367   -0.4819  -21.9160 C   0  0  0  0  0  0  0  0  0  0  0  0
   -7.4340   -1.2975  -21.2599 N   0  0  0  0  0  0  0  0  0  0  0  0
   -6.6024   -0.8099  -20.2229 C   0  0  0  0  0  0  0  0  0  0  0  0
   -6.9213   -1.0365  -18.9079 C   0  0  0  0  0  0  0  0  0  0  0  0
   -6.2543   -0.4924  -17.8616 N   0  0  0  0  0  0  0  0  0  0  0  0
   -5.2193    0.2625  -18.1243 C   0  0  0  0  0  0  0  0  0  0  0  0
   -4.7588    0.5506  -19.4377 C   0  0  0  0  0  0  0  0  0  0  0  0
   -3.6145    1.3567  -19.6655 C   0  0  0  0  0  0  0  0  0  0  0  0
   -3.2069    1.6194  -20.9424 C   0  0  0  0  0  0  0  0  0  0  0  0
   -3.9133    1.0817  -22.0414 C   0  0  0  0  0  0  0  0  0  0  0  0
   -5.0193    0.2893  -21.8461 C   0  0  0  0  0  0  0  0  0  0  0  0
   -5.4706    0.0088  -20.5294 C   0  0  0  0  0  0  0  0  0  0  0  0
   -5.5468   -0.1372  -22.6930 H   0  0  0  0  0  0  0  0  0  0  0  0
   -3.5743    1.2935  -23.0498 H   0  0  0  0  0  0  0  0  0  0  0  0
   -2.3376    2.2463  -21.1211 H   0  0  0  0  0  0  0  0  0  0  0  0
   -3.0824    1.7599  -18.8084 H   0  0  0  0  0  0  0  0  0  0  0  0
   -4.6803    0.6786  -17.2740 H   0  0  0  0  0  0  0  0  0  0  0  0
   -7.7675   -1.6674  -18.6478 H   0  0  0  0  0  0  0  0  0  0  0  0
   -7.5575   -2.6445  -21.5159 C   0  0  0  0  0  0  0  0  0  0  0  0
   -6.7658   -3.4805  -21.1438 O   0  0  0  0  0  0  0  0  0  0  0  0
   -8.7972   -2.8727  -22.3949 C   0  0  1  0  0  0  0  0  0  0  0  0
   -9.9875   -3.3294  -21.5164 C   0  0  0  0  0  0  0  0  0  0  0  0
  -11.1210   -3.7908  -22.3154 N   0  0  0  0  0  0  0  0  0  0  0  0
  -12.4887   -3.6707  -21.8320 C   0  0  0  0  0  0  0  0  0  0  0  0
  -13.3285   -2.6277  -22.5141 C   0  0  0  0  0  0  0  0  0  0  0  0
  -13.7337   -1.4544  -21.9465 N   0  0  0  0  0  0  0  0  0  0  0  0
  -14.5808   -0.9729  -22.8374 C   0  0  0  0  0  0  0  0  0  0  0  0
  -14.6531   -1.8016  -23.8884 N   0  0  0  0  0  0  0  0  0  0  0  0
  -13.8536   -2.8698  -23.7002 N   0  0  0  0  0  0  0  0  0  0  0  0
  -15.2662   -1.7706  -24.6831 H   0  0  0  0  0  0  0  0  0  0  0  0
  -15.1914   -0.0849  -22.7542 H   0  0  0  0  0  0  0  0  0  0  0  0
  -12.9743   -4.6149  -22.0867 H   0  0  0  0  0  0  0  0  0  0  0  0
  -12.4835   -3.5265  -20.7528 H   0  0  0  0  0  0  0  0  0  0  0  0
  -10.9472   -4.6052  -23.4007 C   0  0  0  0  0  0  0  0  0  0  0  0
  -11.8876   -5.1424  -23.9691 O   0  0  0  0  0  0  0  0  0  0  0  0
   -9.5485   -4.7746  -23.8823 C   0  0  0  0  0  0  0  0  0  0  0  0
   -9.3121   -5.7623  -24.8381 C   0  0  0  0  0  0  0  0  0  0  0  0
   -8.0532   -5.9184  -25.3851 C   0  0  0  0  0  0  0  0  0  0  0  0
   -7.0487   -5.0541  -24.9653 C   0  0  0  0  0  0  0  0  0  0  0  0
   -5.8216   -5.1882  -25.4951 F   0  0  0  0  0  0  0  0  0  0  0  0
   -7.2523   -4.0925  -23.9953 C   0  0  0  0  0  0  0  0  0  0  0  0
   -8.5248   -3.9376  -23.4328 C   0  0  0  0  0  0  0  0  0  0  0  0
   -6.4065   -3.5107  -23.6537 H   0  0  0  0  0  0  0  0  0  0  0  0
   -7.8415   -6.6891  -26.1180 H   0  0  0  0  0  0  0  0  0  0  0  0
  -10.1454   -6.3901  -25.1427 H   0  0  0  0  0  0  0  0  0  0  0  0
  -10.2936   -2.4585  -20.9280 H   0  0  0  0  0  0  0  0  0  0  0  0
   -9.6608   -4.1263  -20.8377 H   0  0  0  0  0  0  0  0  0  0  0  0
   -9.2032   -0.1335  -21.2016 H   0  0  0  0  0  0  0  0  0  0  0  0
   -7.9751    0.4035  -22.3651 H   0  0  0  0  0  0  0  0  0  0  0  0
   -8.4173   -1.3761  -23.8802 H   0  0  0  0  0  0  0  0  0  0  0  0
  -10.5626   -0.1283  -23.8236 H   0  0  0  0  0  0  0  0  0  0  0  0
  -11.0778   -1.0338  -22.3926 H   0  0  0  0  0  0  0  0  0  0  0  0
  -10.9232   -1.8690  -23.9349 H   0  0  0  0  0  0  0  0  0  0  0  0
  1  2  1  0
  2  3  1  0
  3  4  1  0
  4  5  1  0
  5  6  2  0
  6  7  1  0
  7  8  2  0
  8  9  1  0
  9 10  2  0
 10 11  1  0
 11 12  2  0
 12 13  1  0
 13 14  2  0
 13 15  1  0
 12 16  1  0
 11 17  1  0
 10 18  1  0
  8 19  1  0
  6 20  1  0
  4 21  1  0
 21 22  2  0
 21 23  1  0
 23 24  1  1
 24 25  1  0
 25 26  1  0
 26 27  1  0
 27 28  1  0
 28 29  2  0
 29 30  1  0
 30 31  1  0
 30 32  1  0
 29 33  1  0
 26 34  1  0
 26 35  1  0
 25 36  1  0
 36 37  2  0
 36 38  1  0
 38 39  2  0
 39 40  1  0
 40 41  2  0
 41 42  1  0
 41 43  1  0
 43 44  2  0
 43 45  1  0
 40 46  1  0
 39 47  1  0
 24 48  1  0
 24 49  1  0
  3 50  1  0
  3 51  1  0
  2 52  1  6
  1 53  1  0
  1 54  1  0
  1 55  1  0
 23  2  1  0
 31 27  2  0
 44 38  1  0
 14  5  1  0
 44 23  1  0
 14  9  1  0
M  END
>  <cnnaffinities>  (62) 
[6.65042, 6.716]

>  <score>  (62) 
6.65042

>  <index>  (62) 
64

>  <Smiles>  (62) 
C([C@]1(C(N(c2c(nc(c3c(c(c(c(c23)[H])[H])[H])[H])[H])[H])C(=O)[C@]21C(N(C(c1nc(n(n1)[H])[H])([H])[H])C(=O)c1c(c(c(F)c(c21)[H])[H])[H])([H])[H])([H])[H])[H])([H])([H])[H]

>  <h>  (62) 
<NA>

>  <Training>  (62) 
True

>  <Success>  (62) 
True

>  <enamine_searched>  (62) 
False

>  <enamine_id>  (62) 
nan

$$$$

     RDKit          3D

 55 60  0  0  0  0  0  0  0  0999 V2000
  -10.4831   -1.1221  -23.3308 C   0  0  0  0  0  0  0  0  0  0  0  0
   -9.0314   -1.4411  -22.9844 C   0  0  1  0  0  0  0  0  0  0  0  0
   -8.4426   -0.4979  -21.9203 C   0  0  0  0  0  0  0  0  0  0  0  0
   -7.4240   -1.3045  -21.2730 N   0  0  0  0  0  0  0  0  0  0  0  0
   -6.6026   -0.8113  -20.2286 C   0  0  0  0  0  0  0  0  0  0  0  0
   -6.9272   -1.0368  -18.9154 C   0  0  0  0  0  0  0  0  0  0  0  0
   -6.2585   -0.4929  -17.8694 N   0  0  0  0  0  0  0  0  0  0  0  0
   -5.2227    0.2621  -18.1287 C   0  0  0  0  0  0  0  0  0  0  0  0
   -4.7605    0.5526  -19.4401 C   0  0  0  0  0  0  0  0  0  0  0  0
   -3.6157    1.3613  -19.6656 C   0  0  0  0  0  0  0  0  0  0  0  0
   -3.2075    1.6242  -20.9443 C   0  0  0  0  0  0  0  0  0  0  0  0
   -3.9142    1.0846  -22.0435 C   0  0  0  0  0  0  0  0  0  0  0  0
   -5.0188    0.2908  -21.8486 C   0  0  0  0  0  0  0  0  0  0  0  0
   -5.4711    0.0090  -20.5325 C   0  0  0  0  0  0  0  0  0  0  0  0
   -5.5530   -0.1382  -22.6905 H   0  0  0  0  0  0  0  0  0  0  0  0
   -3.5750    1.2930  -23.0543 H   0  0  0  0  0  0  0  0  0  0  0  0
   -2.3337    2.2459  -21.1238 H   0  0  0  0  0  0  0  0  0  0  0  0
   -3.0819    1.7642  -18.8083 H   0  0  0  0  0  0  0  0  0  0  0  0
   -4.6899    0.6823  -17.2744 H   0  0  0  0  0  0  0  0  0  0  0  0
   -7.7724   -1.6676  -18.6484 H   0  0  0  0  0  0  0  0  0  0  0  0
   -7.5490   -2.6550  -21.5131 C   0  0  0  0  0  0  0  0  0  0  0  0
   -6.7835   -3.4950  -21.0935 O   0  0  0  0  0  0  0  0  0  0  0  0
   -8.7684   -2.8882  -22.4236 C   0  0  1  0  0  0  0  0  0  0  0  0
   -9.9493   -3.3814  -21.5497 C   0  0  0  0  0  0  0  0  0  0  0  0
  -11.0853   -3.8453  -22.3360 N   0  0  0  0  0  0  0  0  0  0  0  0
  -12.4476   -3.8031  -21.8207 C   0  0  0  0  0  0  0  0  0  0  0  0
  -13.2945   -2.6968  -22.3583 C   0  0  0  0  0  0  0  0  0  0  0  0
  -13.9817   -2.7494  -23.5198 C   0  0  0  0  0  0  0  0  0  0  0  0
  -14.7335   -1.6159  -23.6269 O   0  0  0  0  0  0  0  0  0  0  0  0
  -14.4739   -0.9472  -22.4880 C   0  0  0  0  0  0  0  0  0  0  0  0
  -13.6347   -1.5257  -21.6932 N   0  0  0  0  0  0  0  0  0  0  0  0
  -15.0096   -0.0163  -22.3546 H   0  0  0  0  0  0  0  0  0  0  0  0
  -14.0490   -3.4820  -24.3081 H   0  0  0  0  0  0  0  0  0  0  0  0
  -12.4525   -3.8270  -20.7309 H   0  0  0  0  0  0  0  0  0  0  0  0
  -12.9191   -4.7046  -22.2040 H   0  0  0  0  0  0  0  0  0  0  0  0
  -10.9162   -4.5744  -23.4833 C   0  0  0  0  0  0  0  0  0  0  0  0
  -11.8614   -5.0567  -24.0950 O   0  0  0  0  0  0  0  0  0  0  0  0
   -9.5078   -4.7583  -23.9504 C   0  0  0  0  0  0  0  0  0  0  0  0
   -9.2569   -5.7450  -24.9053 C   0  0  0  0  0  0  0  0  0  0  0  0
   -7.9839   -5.9051  -25.4232 C   0  0  0  0  0  0  0  0  0  0  0  0
   -6.9771   -5.0441  -24.9991 C   0  0  0  0  0  0  0  0  0  0  0  0
   -5.7384   -5.1879  -25.5035 F   0  0  0  0  0  0  0  0  0  0  0  0
   -7.1987   -4.0841  -24.0318 C   0  0  0  0  0  0  0  0  0  0  0  0
   -8.4779   -3.9373  -23.4774 C   0  0  0  0  0  0  0  0  0  0  0  0
   -6.3550   -3.5106  -23.6719 H   0  0  0  0  0  0  0  0  0  0  0  0
   -7.7627   -6.6833  -26.1427 H   0  0  0  0  0  0  0  0  0  0  0  0
  -10.0859   -6.3741  -25.2304 H   0  0  0  0  0  0  0  0  0  0  0  0
  -10.2398   -2.5290  -20.9294 H   0  0  0  0  0  0  0  0  0  0  0  0
   -9.5977   -4.1863  -20.8968 H   0  0  0  0  0  0  0  0  0  0  0  0
   -9.2099   -0.1642  -21.2046 H   0  0  0  0  0  0  0  0  0  0  0  0
   -8.0043    0.4056  -22.3527 H   0  0  0  0  0  0  0  0  0  0  0  0
   -8.4196   -1.3660  -23.8930 H   0  0  0  0  0  0  0  0  0  0  0  0
  -10.5846   -0.1623  -23.8422 H   0  0  0  0  0  0  0  0  0  0  0  0
  -10.9057   -1.8992  -23.9730 H   0  0  0  0  0  0  0  0  0  0  0  0
  -11.1053   -1.0778  -22.4326 H   0  0  0  0  0  0  0  0  0  0  0  0
  1  2  1  0
  2  3  1  0
  3  4  1  0
  4  5  1  0
  5  6  2  0
  6  7  1  0
  7  8  2  0
  8  9  1  0
  9 10  2  0
 10 11  1  0
 11 12  2  0
 12 13  1  0
 13 14  2  0
 13 15  1  0
 12 16  1  0
 11 17  1  0
 10 18  1  0
  8 19  1  0
  6 20  1  0
  4 21  1  0
 21 22  2  0
 21 23  1  0
 23 24  1  1
 24 25  1  0
 25 26  1  0
 26 27  1  0
 27 28  2  0
 28 29  1  0
 29 30  1  0
 30 31  2  0
 30 32  1  0
 28 33  1  0
 26 34  1  0
 26 35  1  0
 25 36  1  0
 36 37  2  0
 36 38  1  0
 38 39  2  0
 39 40  1  0
 40 41  2  0
 41 42  1  0
 41 43  1  0
 43 44  2  0
 43 45  1  0
 40 46  1  0
 39 47  1  0
 24 48  1  0
 24 49  1  0
  3 50  1  0
  3 51  1  0
  2 52  1  6
  1 53  1  0
  1 54  1  0
  1 55  1  0
 23  2  1  0
 31 27  1  0
 44 38  1  0
 14  5  1  0
 44 23  1  0
 14  9  1  0
M  END
>  <cnnaffinities>  (63) 
[6.63458]

>  <score>  (63) 
6.63458

>  <index>  (63) 
65

>  <Smiles>  (63) 
C([C@]1(C(N(c2c(nc(c3c(c(c(c(c23)[H])[H])[H])[H])[H])[H])C(=O)[C@]21C(N(C(c1c(oc(n1)[H])[H])([H])[H])C(=O)c1c(c(c(F)c(c21)[H])[H])[H])([H])[H])([H])[H])[H])([H])([H])[H]

>  <h>  (63) 
<NA>

>  <Training>  (63) 
True

>  <Success>  (63) 
True

>  <enamine_searched>  (63) 
False

>  <enamine_id>  (63) 
nan

$$$$

     RDKit          3D

 44 47  0  0  0  0  0  0  0  0999 V2000
   -7.8633   -0.6300  -24.9376 C   0  0  0  0  0  0  0  0  0  0  0  0
   -8.3869   -2.0405  -25.1093 C   0  0  0  0  0  0  0  0  0  0  0  0
   -8.3360   -2.8823  -23.8281 C   0  0  1  0  0  0  0  0  0  0  0  0
   -8.8926   -4.2593  -24.0821 C   0  0  0  0  0  0  0  0  0  0  0  0
  -10.2726   -4.5619  -24.3013 C   0  0  0  0  0  0  0  0  0  0  0  0
  -10.4689   -5.8765  -24.5909 C   0  0  0  0  0  0  0  0  0  0  0  0
   -8.9922   -6.7734  -24.5664 S   0  0  0  0  0  0  0  0  0  0  0  0
   -8.0863   -5.3524  -24.1795 C   0  0  0  0  0  0  0  0  0  0  0  0
   -6.6072   -5.3352  -23.9374 C   0  0  0  0  0  0  0  0  0  0  0  0
   -6.0947   -3.8947  -23.9597 C   0  0  0  0  0  0  0  0  0  0  0  0
   -6.9909   -2.9803  -23.2490 N   0  0  0  0  0  0  0  0  0  0  0  0
   -6.6857   -2.6722  -21.9325 C   0  0  0  0  0  0  0  0  0  0  0  0
   -5.8364   -3.2872  -21.3140 O   0  0  0  0  0  0  0  0  0  0  0  0
   -7.4053   -1.4686  -21.2779 C   0  0  0  0  0  0  0  0  0  0  0  0
   -6.5808   -0.8277  -20.1855 C   0  0  0  0  0  0  0  0  0  0  0  0
   -6.8739   -1.0415  -18.8643 C   0  0  0  0  0  0  0  0  0  0  0  0
   -6.1955   -0.5161  -17.8115 N   0  0  0  0  0  0  0  0  0  0  0  0
   -5.1538    0.2313  -18.0700 C   0  0  0  0  0  0  0  0  0  0  0  0
   -4.7171    0.5333  -19.3869 C   0  0  0  0  0  0  0  0  0  0  0  0
   -3.5886    1.3598  -19.6240 C   0  0  0  0  0  0  0  0  0  0  0  0
   -3.1915    1.6381  -20.9035 C   0  0  0  0  0  0  0  0  0  0  0  0
   -3.9068    1.0960  -21.9940 C   0  0  0  0  0  0  0  0  0  0  0  0
   -5.0032    0.2946  -21.7870 C   0  0  0  0  0  0  0  0  0  0  0  0
   -5.4465   -0.0074  -20.4730 C   0  0  0  0  0  0  0  0  0  0  0  0
   -5.5355   -0.1119  -22.6408 H   0  0  0  0  0  0  0  0  0  0  0  0
   -3.5862    1.3227  -23.0051 H   0  0  0  0  0  0  0  0  0  0  0  0
   -2.3332    2.2769  -21.0887 H   0  0  0  0  0  0  0  0  0  0  0  0
   -3.0531    1.7750  -18.7740 H   0  0  0  0  0  0  0  0  0  0  0  0
   -4.5999    0.6288  -17.2171 H   0  0  0  0  0  0  0  0  0  0  0  0
   -7.7182   -1.6700  -18.5851 H   0  0  0  0  0  0  0  0  0  0  0  0
   -7.6873   -0.7157  -22.0271 H   0  0  0  0  0  0  0  0  0  0  0  0
   -8.3426   -1.8359  -20.8402 H   0  0  0  0  0  0  0  0  0  0  0  0
   -6.0032   -3.5641  -24.9997 H   0  0  0  0  0  0  0  0  0  0  0  0
   -5.0996   -3.8275  -23.5187 H   0  0  0  0  0  0  0  0  0  0  0  0
   -6.3964   -5.7707  -22.9550 H   0  0  0  0  0  0  0  0  0  0  0  0
   -6.0684   -5.9543  -24.6664 H   0  0  0  0  0  0  0  0  0  0  0  0
  -11.4111   -6.3837  -24.7486 H   0  0  0  0  0  0  0  0  0  0  0  0
  -11.0793   -3.8328  -24.2515 H   0  0  0  0  0  0  0  0  0  0  0  0
   -8.9883   -2.4007  -23.0925 H   0  0  0  0  0  0  0  0  0  0  0  0
   -7.8395   -2.5691  -25.8926 H   0  0  0  0  0  0  0  0  0  0  0  0
   -9.4250   -2.0179  -25.4585 H   0  0  0  0  0  0  0  0  0  0  0  0
   -7.9254   -0.0742  -25.8751 H   0  0  0  0  0  0  0  0  0  0  0  0
   -6.8185   -0.6388  -24.6157 H   0  0  0  0  0  0  0  0  0  0  0  0
   -8.4458   -0.0841  -24.1897 H   0  0  0  0  0  0  0  0  0  0  0  0
  1  2  1  0
  2  3  1  0
  3  4  1  0
  4  5  1  0
  5  6  2  0
  6  7  1  0
  7  8  1  0
  8  9  1  0
  9 10  1  0
 10 11  1  0
 11 12  1  0
 12 13  2  0
 12 14  1  0
 14 15  1  0
 15 16  2  0
 16 17  1  0
 17 18  2  0
 18 19  1  0
 19 20  2  0
 20 21  1  0
 21 22  2  0
 22 23  1  0
 23 24  2  0
 23 25  1  0
 22 26  1  0
 21 27  1  0
 20 28  1  0
 18 29  1  0
 16 30  1  0
 14 31  1  0
 14 32  1  0
 10 33  1  0
 10 34  1  0
  9 35  1  0
  9 36  1  0
  6 37  1  0
  5 38  1  0
  3 39  1  1
  2 40  1  0
  2 41  1  0
  1 42  1  0
  1 43  1  0
  1 44  1  0
 11  3  1  0
 24 15  1  0
  8  4  2  0
 24 19  1  0
M  END
>  <cnnaffinities>  (64) 
[5.46078, 5.34395, 5.35842, 5.42829, 5.41139]

>  <score>  (64) 
5.46078

>  <index>  (64) 
66

>  <Smiles>  (64) 
C(C([C@]1(c2c(c(sc2C(C(N1C(=O)C(c1c(nc(c2c(c(c(c(c12)[H])[H])[H])[H])[H])[H])([H])[H])([H])[H])([H])[H])[H])[H])[H])([H])[H])([H])([H])[H]

>  <h>  (64) 
<NA>

>  <Training>  (64) 
True

>  <Success>  (64) 
True

>  <enamine_searched>  (64) 
False

>  <enamine_id>  (64) 
nan

$$$$

     RDKit          3D

 58 63  0  0  0  0  0  0  0  0999 V2000
   -8.2891   -7.2003  -27.4880 C   0  0  0  0  0  0  0  0  0  0  0  0
   -7.7527   -5.8369  -27.1920 C   0  0  0  0  0  0  0  0  0  0  0  0
   -8.4647   -4.6135  -27.3286 C   0  0  0  0  0  0  0  0  0  0  0  0
   -7.5788   -3.6750  -26.9268 C   0  0  0  0  0  0  0  0  0  0  0  0
   -7.7242   -2.1935  -26.7985 C   0  0  0  0  0  0  0  0  0  0  0  0
   -8.5752   -1.7992  -25.6855 N   0  0  0  0  0  0  0  0  0  0  0  0
   -7.9497   -1.2494  -24.4922 C   0  0  0  0  0  0  0  0  0  0  0  0
   -8.7297   -1.5288  -23.1867 C   0  0  2  0  0  0  0  0  0  0  0  0
   -8.1300   -0.5974  -22.1100 C   0  0  0  0  0  0  0  0  0  0  0  0
   -8.2445    0.6082  -22.0396 O   0  0  0  0  0  0  0  0  0  0  0  0
   -7.3989   -1.3576  -21.2286 N   0  0  0  0  0  0  0  0  0  0  0  0
   -6.6078   -0.7896  -20.1979 C   0  0  0  0  0  0  0  0  0  0  0  0
   -6.9032   -1.0372  -18.8819 C   0  0  0  0  0  0  0  0  0  0  0  0
   -6.2163   -0.5213  -17.8364 N   0  0  0  0  0  0  0  0  0  0  0  0
   -5.1740    0.2252  -18.0963 C   0  0  0  0  0  0  0  0  0  0  0  0
   -4.7284    0.5309  -19.4105 C   0  0  0  0  0  0  0  0  0  0  0  0
   -3.5892    1.3488  -19.6406 C   0  0  0  0  0  0  0  0  0  0  0  0
   -3.1778    1.6181  -20.9158 C   0  0  0  0  0  0  0  0  0  0  0  0
   -3.8779    1.0678  -22.0139 C   0  0  0  0  0  0  0  0  0  0  0  0
   -4.9782    0.2754  -21.8150 C   0  0  0  0  0  0  0  0  0  0  0  0
   -5.4529    0.0038  -20.5014 C   0  0  0  0  0  0  0  0  0  0  0  0
   -5.5090   -0.1404  -22.6655 H   0  0  0  0  0  0  0  0  0  0  0  0
   -3.5525    1.2891  -23.0250 H   0  0  0  0  0  0  0  0  0  0  0  0
   -2.3221    2.2647  -21.0921 H   0  0  0  0  0  0  0  0  0  0  0  0
   -3.0723    1.7649  -18.7797 H   0  0  0  0  0  0  0  0  0  0  0  0
   -4.6254    0.6215  -17.2425 H   0  0  0  0  0  0  0  0  0  0  0  0
   -7.7423   -1.6780  -18.6135 H   0  0  0  0  0  0  0  0  0  0  0  0
   -7.3845   -2.7723  -21.5346 C   0  0  0  0  0  0  0  0  0  0  0  0
   -8.5155   -2.9557  -22.5584 C   0  0  2  0  0  0  0  0  0  0  0  0
   -8.2572   -4.1056  -23.5294 C   0  0  0  0  0  0  0  0  0  0  0  0
   -7.2961   -3.9664  -24.0339 H   0  0  0  0  0  0  0  0  0  0  0  0
   -9.0386   -4.1684  -24.2955 H   0  0  0  0  0  0  0  0  0  0  0  0
   -8.2187   -5.0638  -22.9998 H   0  0  0  0  0  0  0  0  0  0  0  0
   -9.4410   -3.1668  -22.0022 H   0  0  0  0  0  0  0  0  0  0  0  0
   -7.5597   -3.3263  -20.6179 H   0  0  0  0  0  0  0  0  0  0  0  0
   -6.4130   -3.0870  -21.9467 H   0  0  0  0  0  0  0  0  0  0  0  0
  -10.1939   -1.2401  -23.4391 C   0  0  0  0  0  0  0  0  0  0  0  0
  -11.0358   -0.9726  -22.3528 C   0  0  0  0  0  0  0  0  0  0  0  0
  -12.3902   -0.8534  -22.5901 C   0  0  0  0  0  0  0  0  0  0  0  0
  -13.2670   -0.7181  -21.5901 F   0  0  0  0  0  0  0  0  0  0  0  0
  -12.9392   -0.9502  -23.8577 C   0  0  0  0  0  0  0  0  0  0  0  0
  -12.1248   -1.3141  -24.9079 C   0  0  0  0  0  0  0  0  0  0  0  0
  -10.7517   -1.4174  -24.7089 C   0  0  0  0  0  0  0  0  0  0  0  0
   -9.9238   -1.7934  -25.8895 C   0  0  0  0  0  0  0  0  0  0  0  0
  -10.4374   -2.0976  -26.9623 O   0  0  0  0  0  0  0  0  0  0  0  0
  -12.4998   -1.6030  -25.8856 H   0  0  0  0  0  0  0  0  0  0  0  0
  -14.0042   -0.7886  -23.9396 H   0  0  0  0  0  0  0  0  0  0  0  0
  -10.6228   -0.8786  -21.3551 H   0  0  0  0  0  0  0  0  0  0  0  0
   -6.9509   -1.7000  -24.4242 H   0  0  0  0  0  0  0  0  0  0  0  0
   -7.8609   -0.1535  -24.5628 H   0  0  0  0  0  0  0  0  0  0  0  0
   -8.2043   -1.8210  -27.7069 H   0  0  0  0  0  0  0  0  0  0  0  0
   -6.7485   -1.7254  -26.6730 H   0  0  0  0  0  0  0  0  0  0  0  0
   -6.4214   -4.2582  -26.5864 O   0  0  0  0  0  0  0  0  0  0  0  0
   -6.5314   -5.6376  -26.7561 N   0  0  0  0  0  0  0  0  0  0  0  0
   -9.4849   -4.4633  -27.6480 H   0  0  0  0  0  0  0  0  0  0  0  0
   -9.3567   -7.2404  -27.2524 H   0  0  0  0  0  0  0  0  0  0  0  0
   -7.7647   -7.9422  -26.8896 H   0  0  0  0  0  0  0  0  0  0  0  0
   -8.1752   -7.4317  -28.5523 H   0  0  0  0  0  0  0  0  0  0  0  0
  1  2  1  0
  2  3  1  0
  3  4  2  0
  4  5  1  0
  5  6  1  0
  6  7  1  0
  8  7  1  6
  8  9  1  0
  9 10  2  0
  9 11  1  0
 11 12  1  0
 12 13  2  0
 13 14  1  0
 14 15  2  0
 15 16  1  0
 16 17  2  0
 17 18  1  0
 18 19  2  0
 19 20  1  0
 20 21  2  0
 20 22  1  0
 19 23  1  0
 18 24  1  0
 17 25  1  0
 15 26  1  0
 13 27  1  0
 11 28  1  0
 28 29  1  0
 29 30  1  0
 30 31  1  0
 30 32  1  0
 30 33  1  0
 29 34  1  1
 28 35  1  0
 28 36  1  0
  8 37  1  0
 37 38  2  0
 38 39  1  0
 39 40  1  0
 39 41  2  0
 41 42  1  0
 42 43  2  0
 43 44  1  0
 44 45  2  0
 42 46  1  0
 41 47  1  0
 38 48  1  0
  7 49  1  0
  7 50  1  0
  5 51  1  0
  5 52  1  0
  4 53  1  0
 53 54  1  0
  3 55  1  0
  1 56  1  0
  1 57  1  0
  1 58  1  0
 54  2  2  0
 44  6  1  0
 29  8  1  0
 43 37  1  0
 21 12  1  0
 21 16  1  0
M  END
>  <cnnaffinities>  (65) 
[6.40573, 6.33824]

>  <score>  (65) 
6.40573

>  <index>  (65) 
67

>  <Smiles>  (65) 
C(c1c(c(C(N2C([C@@]3(C(=O)N(c4c(nc(c5c(c(c(c(c45)[H])[H])[H])[H])[H])[H])C([C@@]3(C([H])([H])[H])[H])([H])[H])c3c(c(F)c(c(c3C2=O)[H])[H])[H])([H])[H])([H])[H])on1)[H])([H])([H])[H]

>  <h>  (65) 
<NA>

>  <Training>  (65) 
True

>  <Success>  (65) 
True

>  <enamine_searched>  (65) 
False

>  <enamine_id>  (65) 
nan

$$$$

     RDKit          3D

 65 70  0  0  0  0  0  0  0  0999 V2000
   -9.2439    0.0728  -20.7624 O   0  0  0  0  0  0  0  0  0  0  0  0
   -8.4711   -0.2970  -21.6266 C   0  0  0  0  0  0  0  0  0  0  0  0
   -7.4550   -1.3829  -21.2824 C   0  0  0  0  0  0  0  0  0  0  0  0
   -6.5586   -0.8406  -20.1936 C   0  0  0  0  0  0  0  0  0  0  0  0
   -6.8982   -1.0153  -18.8792 C   0  0  0  0  0  0  0  0  0  0  0  0
   -6.2334   -0.4778  -17.8264 N   0  0  0  0  0  0  0  0  0  0  0  0
   -5.1813    0.2496  -18.0950 C   0  0  0  0  0  0  0  0  0  0  0  0
   -4.7208    0.5362  -19.4070 C   0  0  0  0  0  0  0  0  0  0  0  0
   -3.6001    1.3729  -19.6426 C   0  0  0  0  0  0  0  0  0  0  0  0
   -3.2095    1.6681  -20.9194 C   0  0  0  0  0  0  0  0  0  0  0  0
   -3.9219    1.1362  -22.0164 C   0  0  0  0  0  0  0  0  0  0  0  0
   -5.0087    0.3175  -21.8124 C   0  0  0  0  0  0  0  0  0  0  0  0
   -5.4393   -0.0131  -20.4985 C   0  0  0  0  0  0  0  0  0  0  0  0
   -5.5567   -0.0452  -22.6769 H   0  0  0  0  0  0  0  0  0  0  0  0
   -3.6126    1.3827  -23.0289 H   0  0  0  0  0  0  0  0  0  0  0  0
   -2.3605    2.3233  -21.0944 H   0  0  0  0  0  0  0  0  0  0  0  0
   -3.0791    1.7853  -18.7823 H   0  0  0  0  0  0  0  0  0  0  0  0
   -4.6279    0.6581  -17.2464 H   0  0  0  0  0  0  0  0  0  0  0  0
   -7.7704   -1.6201  -18.6281 H   0  0  0  0  0  0  0  0  0  0  0  0
   -6.8799   -1.7004  -22.1509 H   0  0  0  0  0  0  0  0  0  0  0  0
   -8.0295   -2.2375  -20.9078 H   0  0  0  0  0  0  0  0  0  0  0  0
   -8.4006    0.3090  -22.8699 N   0  0  0  0  0  0  0  0  0  0  0  0
   -8.1965   -0.4578  -24.0996 C   0  0  0  0  0  0  0  0  0  0  0  0
   -9.3708   -1.3794  -24.3449 C   0  0  0  0  0  0  0  0  0  0  0  0
  -10.5137   -0.9369  -25.0031 C   0  0  0  0  0  0  0  0  0  0  0  0
  -11.6654   -1.7094  -25.0169 C   0  0  0  0  0  0  0  0  0  0  0  0
  -11.7094   -2.9341  -24.3682 C   0  0  0  0  0  0  0  0  0  0  0  0
  -10.5216   -3.4240  -23.8474 C   0  0  0  0  0  0  0  0  0  0  0  0
  -10.4405   -5.0620  -23.3110 Cl  0  0  0  0  0  0  0  0  0  0  0  0
   -9.3589   -2.6646  -23.8074 C   0  0  0  0  0  0  0  0  0  0  0  0
   -8.4569   -3.0976  -23.3754 H   0  0  0  0  0  0  0  0  0  0  0  0
  -12.6398   -3.4970  -24.2938 H   0  0  0  0  0  0  0  0  0  0  0  0
  -12.5400   -1.3749  -25.5581 H   0  0  0  0  0  0  0  0  0  0  0  0
  -10.4884    0.0264  -25.5077 H   0  0  0  0  0  0  0  0  0  0  0  0
   -8.0617    0.2351  -24.9293 H   0  0  0  0  0  0  0  0  0  0  0  0
   -7.2609   -1.0246  -24.0399 H   0  0  0  0  0  0  0  0  0  0  0  0
   -8.8004    1.7117  -22.8887 C   0  0  2  0  0  0  0  0  0  0  0  0
  -10.2882    2.0443  -22.6152 C   0  0  0  0  0  0  0  0  0  0  0  0
  -10.4147    3.5108  -23.1155 C   0  0  0  0  0  0  0  0  0  0  0  0
   -8.9960    3.8410  -23.5833 C   0  0  2  0  0  0  0  0  0  0  0  0
   -8.5282    2.5112  -24.1661 C   0  0  0  0  0  0  0  0  0  0  0  0
   -9.1586    2.1920  -24.9989 H   0  0  0  0  0  0  0  0  0  0  0  0
   -7.4756    2.4968  -24.4638 H   0  0  0  0  0  0  0  0  0  0  0  0
   -8.1382    3.9585  -22.3090 N   0  0  2  0  0  4  0  0  0  0  0  0
   -6.8259    4.6516  -22.4760 C   0  0  0  0  0  0  0  0  0  0  0  0
   -6.9740    6.1501  -22.6835 C   0  0  0  0  0  0  0  0  0  0  0  0
   -5.6493    6.9332  -22.6796 C   0  0  0  0  0  0  0  0  0  0  0  0
   -5.8172    7.3401  -24.0464 O   0  0  0  0  0  0  0  0  0  0  0  0
   -7.0710    6.6534  -24.1350 C   0  0  0  0  0  0  0  0  0  0  0  0
   -7.0322    5.8656  -24.8992 H   0  0  0  0  0  0  0  0  0  0  0  0
   -7.8953    7.3435  -24.3545 H   0  0  0  0  0  0  0  0  0  0  0  0
   -5.5812    7.7949  -22.0049 H   0  0  0  0  0  0  0  0  0  0  0  0
   -4.7540    6.3108  -22.5551 H   0  0  0  0  0  0  0  0  0  0  0  0
   -7.7478    6.5260  -22.0075 H   0  0  0  0  0  0  0  0  0  0  0  0
   -6.2123    4.4691  -21.5866 H   0  0  0  0  0  0  0  0  0  0  0  0
   -6.2738    4.2043  -23.3177 H   0  0  0  0  0  0  0  0  0  0  0  0
   -7.9991    2.5268  -21.8540 C   0  0  0  0  0  0  0  0  0  0  0  0
   -6.9454    2.2412  -21.8301 H   0  0  0  0  0  0  0  0  0  0  0  0
   -8.4128    2.4105  -20.8553 H   0  0  0  0  0  0  0  0  0  0  0  0
   -8.6653    4.4657  -21.5706 H   0  0  0  0  0  0  0  0  0  0  0  0
   -8.8878    4.7388  -24.1839 H   0  0  0  0  0  0  0  0  0  0  0  0
  -10.7292    4.2212  -22.3409 H   0  0  0  0  0  0  0  0  0  0  0  0
  -11.1266    3.5853  -23.9408 H   0  0  0  0  0  0  0  0  0  0  0  0
  -10.9209    1.3545  -23.1806 H   0  0  0  0  0  0  0  0  0  0  0  0
  -10.5325    1.9297  -21.5611 H   0  0  0  0  0  0  0  0  0  0  0  0
  1  2  2  0
  2  3  1  0
  3  4  1  0
  4  5  2  0
  5  6  1  0
  6  7  2  0
  7  8  1  0
  8  9  2  0
  9 10  1  0
 10 11  2  0
 11 12  1  0
 12 13  2  0
 12 14  1  0
 11 15  1  0
 10 16  1  0
  9 17  1  0
  7 18  1  0
  5 19  1  0
  3 20  1  0
  3 21  1  0
  2 22  1  0
 22 23  1  0
 23 24  1  0
 24 25  2  0
 25 26  1  0
 26 27  2  0
 27 28  1  0
 28 29  1  0
 28 30  2  0
 30 31  1  0
 27 32  1  0
 26 33  1  0
 25 34  1  0
 23 35  1  0
 23 36  1  0
 37 22  1  6
 37 38  1  0
 38 39  1  0
 39 40  1  0
 40 41  1  0
 41 42  1  0
 41 43  1  0
 40 44  1  0
 44 45  1  0
 45 46  1  0
 46 47  1  0
 47 48  1  0
 48 49  1  0
 49 50  1  0
 49 51  1  0
 47 52  1  0
 47 53  1  0
 46 54  1  0
 45 55  1  0
 45 56  1  0
 44 57  1  0
 57 58  1  0
 57 59  1  0
 44 60  1  1
 40 61  1  6
 39 62  1  0
 39 63  1  0
 38 64  1  0
 38 65  1  0
 13  4  1  0
 30 24  1  0
 41 37  1  0
 49 46  1  0
 13  8  1  0
 57 37  1  0
M  CHG  1  44   1
M  END
>  <cnnaffinities>  (66) 
[6.23971, 6.35733]

>  <score>  (66) 
6.23971

>  <index>  (66) 
68

>  <Smiles>  (66) 
O=C(C(c1c(nc(c2c(c(c(c(c12)[H])[H])[H])[H])[H])[H])([H])[H])N(C(c1c(c(c(c(Cl)c1[H])[H])[H])[H])([H])[H])[C@]12C(C([C@](C1([H])[H])([N@+](C(C1(C(OC1([H])[H])([H])[H])[H])([H])[H])(C2([H])[H])[H])[H])([H])[H])([H])[H]

>  <h>  (66) 
<NA>

>  <Training>  (66) 
True

>  <Success>  (66) 
True

>  <enamine_searched>  (66) 
False

>  <enamine_id>  (66) 
nan

$$$$

     RDKit          3D

 63 67  0  0  0  0  0  0  0  0999 V2000
   -3.5375    3.0427  -26.2685 C   0  0  0  0  0  0  0  0  0  0  0  0
   -4.3591    2.0228  -26.0302 C   0  0  0  0  0  0  0  0  0  0  0  0
   -4.8581    1.1324  -27.1232 C   0  0  0  0  0  0  0  0  0  0  0  0
   -4.6717    1.3782  -28.2991 O   0  0  0  0  0  0  0  0  0  0  0  0
   -5.6440    0.0333  -26.7242 N   0  0  0  0  0  0  0  0  0  0  0  0
   -6.9583   -0.0451  -27.3644 C   0  0  0  0  0  0  0  0  0  0  0  0
   -7.6476   -1.3692  -27.0827 C   0  0  0  0  0  0  0  0  0  0  0  0
   -7.6303   -1.6626  -25.5860 C   0  0  0  0  0  0  0  0  0  0  0  0
   -6.2134   -1.6494  -25.0543 C   0  0  0  0  0  0  0  0  0  0  0  0
   -5.2523   -0.8407  -25.6945 C   0  0  0  0  0  0  0  0  0  0  0  0
   -3.8973   -0.9459  -25.3409 C   0  0  0  0  0  0  0  0  0  0  0  0
   -3.5091   -1.7939  -24.3188 C   0  0  0  0  0  0  0  0  0  0  0  0
   -4.4624   -2.5194  -23.6078 C   0  0  0  0  0  0  0  0  0  0  0  0
   -5.7948   -2.3993  -23.9572 C   0  0  0  0  0  0  0  0  0  0  0  0
   -6.8350   -3.1869  -23.0630 N   0  0  1  0  0  4  0  0  0  0  0  0
   -6.7003   -4.7090  -23.2752 C   0  0  0  0  0  0  0  0  0  0  0  0
   -7.0284   -5.0859  -24.6951 C   0  0  0  0  0  0  0  0  0  0  0  0
   -8.3413   -5.3832  -25.0648 C   0  0  0  0  0  0  0  0  0  0  0  0
   -8.6627   -5.6940  -26.3822 C   0  0  0  0  0  0  0  0  0  0  0  0
   -7.6758   -5.7238  -27.3625 C   0  0  0  0  0  0  0  0  0  0  0  0
   -6.3680   -5.4332  -26.9903 C   0  0  0  0  0  0  0  0  0  0  0  0
   -5.1221   -5.4509  -28.2109 Cl  0  0  0  0  0  0  0  0  0  0  0  0
   -6.0337   -5.1246  -25.6774 C   0  0  0  0  0  0  0  0  0  0  0  0
   -5.0053   -4.8818  -25.4195 H   0  0  0  0  0  0  0  0  0  0  0  0
   -7.9093   -5.9685  -28.3962 H   0  0  0  0  0  0  0  0  0  0  0  0
   -9.6910   -5.9252  -26.6470 H   0  0  0  0  0  0  0  0  0  0  0  0
   -9.1199   -5.3508  -24.3067 H   0  0  0  0  0  0  0  0  0  0  0  0
   -7.3499   -5.2262  -22.5649 H   0  0  0  0  0  0  0  0  0  0  0  0
   -5.6715   -4.9774  -23.0374 H   0  0  0  0  0  0  0  0  0  0  0  0
   -6.7238   -2.8332  -21.6511 C   0  0  0  0  0  0  0  0  0  0  0  0
   -6.0987   -3.5474  -20.9040 O   0  0  0  0  0  0  0  0  0  0  0  0
   -7.3824   -1.5100  -21.2355 C   0  0  0  0  0  0  0  0  0  0  0  0
   -6.5828   -0.8035  -20.1726 C   0  0  0  0  0  0  0  0  0  0  0  0
   -6.8792   -1.0185  -18.8529 C   0  0  0  0  0  0  0  0  0  0  0  0
   -6.1997   -0.4962  -17.8038 N   0  0  0  0  0  0  0  0  0  0  0  0
   -5.1541    0.2400  -18.0734 C   0  0  0  0  0  0  0  0  0  0  0  0
   -4.7149    0.5386  -19.3901 C   0  0  0  0  0  0  0  0  0  0  0  0
   -3.5803    1.3525  -19.6253 C   0  0  0  0  0  0  0  0  0  0  0  0
   -3.1864    1.6349  -20.9037 C   0  0  0  0  0  0  0  0  0  0  0  0
   -3.9173    1.1123  -21.9965 C   0  0  0  0  0  0  0  0  0  0  0  0
   -5.0255    0.3254  -21.7948 C   0  0  0  0  0  0  0  0  0  0  0  0
   -5.4530    0.0139  -20.4768 C   0  0  0  0  0  0  0  0  0  0  0  0
   -5.5774   -0.0738  -22.6428 H   0  0  0  0  0  0  0  0  0  0  0  0
   -3.6017    1.3487  -23.0098 H   0  0  0  0  0  0  0  0  0  0  0  0
   -2.3258    2.2729  -21.0782 H   0  0  0  0  0  0  0  0  0  0  0  0
   -3.0545    1.7604  -18.7666 H   0  0  0  0  0  0  0  0  0  0  0  0
   -4.6010    0.6336  -17.2215 H   0  0  0  0  0  0  0  0  0  0  0  0
   -7.7148   -1.6624  -18.5806 H   0  0  0  0  0  0  0  0  0  0  0  0
   -8.3778   -1.7481  -20.8290 H   0  0  0  0  0  0  0  0  0  0  0  0
   -7.5496   -0.8735  -22.1111 H   0  0  0  0  0  0  0  0  0  0  0  0
   -7.7373   -2.8539  -23.4488 H   0  0  0  0  0  0  0  0  0  0  0  0
   -4.2068   -3.1368  -22.7550 H   0  0  0  0  0  0  0  0  0  0  0  0
   -2.4584   -1.8508  -24.0563 H   0  0  0  0  0  0  0  0  0  0  0  0
   -3.1393   -0.3840  -25.8807 H   0  0  0  0  0  0  0  0  0  0  0  0
   -8.1123   -2.6266  -25.3943 H   0  0  0  0  0  0  0  0  0  0  0  0
   -8.2227   -0.9116  -25.0447 H   0  0  0  0  0  0  0  0  0  0  0  0
   -7.1529   -2.1827  -27.6285 H   0  0  0  0  0  0  0  0  0  0  0  0
   -8.6777   -1.3140  -27.4554 H   0  0  0  0  0  0  0  0  0  0  0  0
   -6.8097    0.1162  -28.4377 H   0  0  0  0  0  0  0  0  0  0  0  0
   -7.5919    0.7803  -26.9987 H   0  0  0  0  0  0  0  0  0  0  0  0
   -4.7577    1.8309  -25.0336 H   0  0  0  0  0  0  0  0  0  0  0  0
   -3.2204    3.7189  -25.4776 H   0  0  0  0  0  0  0  0  0  0  0  0
   -3.1655    3.2543  -27.2682 H   0  0  0  0  0  0  0  0  0  0  0  0
  1  2  2  0
  2  3  1  0
  3  4  2  0
  3  5  1  0
  5  6  1  0
  6  7  1  0
  7  8  1  0
  8  9  1  0
  9 10  2  0
 10 11  1  0
 11 12  2  0
 12 13  1  0
 13 14  2  0
 14 15  1  0
 15 16  1  0
 16 17  1  0
 17 18  2  0
 18 19  1  0
 19 20  2  0
 20 21  1  0
 21 22  1  0
 21 23  2  0
 23 24  1  0
 20 25  1  0
 19 26  1  0
 18 27  1  0
 16 28  1  0
 16 29  1  0
 15 30  1  0
 30 31  2  0
 30 32  1  0
 32 33  1  0
 33 34  2  0
 34 35  1  0
 35 36  2  0
 36 37  1  0
 37 38  2  0
 38 39  1  0
 39 40  2  0
 40 41  1  0
 41 42  2  0
 41 43  1  0
 40 44  1  0
 39 45  1  0
 38 46  1  0
 36 47  1  0
 34 48  1  0
 32 49  1  0
 32 50  1  0
 15 51  1  6
 13 52  1  0
 12 53  1  0
 11 54  1  0
  8 55  1  0
  8 56  1  0
  7 57  1  0
  7 58  1  0
  6 59  1  0
  6 60  1  0
  2 61  1  0
  1 62  1  0
  1 63  1  0
 10  5  1  0
 23 17  1  0
 42 33  1  0
 14  9  1  0
 42 37  1  0
M  CHG  1  15   1
M  END
>  <cnnaffinities>  (67) 
[6.38293]

>  <score>  (67) 
6.38293

>  <index>  (67) 
69

>  <Smiles>  (67) 
C(=C(C(=O)N1C(C(C(c2c1c(c(c(c2[N@@+](C(c1c(c(c(c(Cl)c1[H])[H])[H])[H])([H])[H])(C(=O)C(c1c(nc(c2c(c(c(c(c12)[H])[H])[H])[H])[H])[H])([H])[H])[H])[H])[H])[H])([H])[H])([H])[H])([H])[H])[H])([H])[H]

>  <h>  (67) 
<NA>

>  <Training>  (67) 
True

>  <Success>  (67) 
True

>  <enamine_searched>  (67) 
False

>  <enamine_id>  (67) 
nan

$$$$

     RDKit          3D

 52 54  0  0  0  0  0  0  0  0999 V2000
  -10.6407   -4.9589  -27.0062 C   0  0  0  0  0  0  0  0  0  0  0  0
  -10.0528   -6.2903  -26.5487 C   0  0  0  0  0  0  0  0  0  0  0  0
  -11.0945   -7.3690  -26.8242 C   0  0  0  0  0  0  0  0  0  0  0  0
  -11.9532   -7.1856  -26.1710 H   0  0  0  0  0  0  0  0  0  0  0  0
  -10.7232   -8.3835  -26.6461 H   0  0  0  0  0  0  0  0  0  0  0  0
  -11.4533   -7.3252  -27.8577 H   0  0  0  0  0  0  0  0  0  0  0  0
   -9.6690   -6.3099  -25.0640 C   0  0  0  0  0  0  0  0  0  0  0  0
   -8.5284   -5.3911  -24.5754 C   0  0  0  0  0  0  0  0  0  0  0  0
   -7.3754   -5.4617  -25.5960 C   0  0  0  0  0  0  0  0  0  0  0  0
   -7.0621   -6.5019  -25.7559 H   0  0  0  0  0  0  0  0  0  0  0  0
   -6.4855   -4.9049  -25.2904 H   0  0  0  0  0  0  0  0  0  0  0  0
   -7.6805   -5.0598  -26.5683 H   0  0  0  0  0  0  0  0  0  0  0  0
   -9.0200   -3.9278  -24.3639 C   0  0  0  0  0  0  0  0  0  0  0  0
   -8.8653   -3.4456  -22.9155 C   0  0  0  0  0  0  0  0  0  0  0  0
   -7.5186   -3.7083  -22.4095 N   0  0  0  0  0  0  0  0  0  0  0  0
   -6.7375   -2.8340  -21.7134 C   0  0  0  0  0  0  0  0  0  0  0  0
   -5.5829   -3.1004  -21.4200 O   0  0  0  0  0  0  0  0  0  0  0  0
   -7.3932   -1.5164  -21.2878 C   0  0  0  0  0  0  0  0  0  0  0  0
   -6.5965   -0.8263  -20.2321 C   0  0  0  0  0  0  0  0  0  0  0  0
   -6.9423   -1.0026  -18.9201 C   0  0  0  0  0  0  0  0  0  0  0  0
   -6.2835   -0.4686  -17.8630 N   0  0  0  0  0  0  0  0  0  0  0  0
   -5.2245    0.2512  -18.1284 C   0  0  0  0  0  0  0  0  0  0  0  0
   -4.7403    0.5066  -19.4371 C   0  0  0  0  0  0  0  0  0  0  0  0
   -3.6060    1.3247  -19.6682 C   0  0  0  0  0  0  0  0  0  0  0  0
   -3.2005    1.6012  -20.9444 C   0  0  0  0  0  0  0  0  0  0  0  0
   -3.8984    1.0497  -22.0448 C   0  0  0  0  0  0  0  0  0  0  0  0
   -4.9853    0.2305  -21.8477 C   0  0  0  0  0  0  0  0  0  0  0  0
   -5.4469   -0.0458  -20.5324 C   0  0  0  0  0  0  0  0  0  0  0  0
   -5.4932   -0.2092  -22.7014 H   0  0  0  0  0  0  0  0  0  0  0  0
   -3.5760    1.2919  -23.0530 H   0  0  0  0  0  0  0  0  0  0  0  0
   -2.3526    2.2581  -21.1197 H   0  0  0  0  0  0  0  0  0  0  0  0
   -3.0878    1.7471  -18.8097 H   0  0  0  0  0  0  0  0  0  0  0  0
   -4.7028    0.6809  -17.2717 H   0  0  0  0  0  0  0  0  0  0  0  0
   -7.8096   -1.6079  -18.6648 H   0  0  0  0  0  0  0  0  0  0  0  0
   -7.5296   -0.8745  -22.1670 H   0  0  0  0  0  0  0  0  0  0  0  0
   -8.3927   -1.7377  -20.8915 H   0  0  0  0  0  0  0  0  0  0  0  0
   -6.9766   -5.0518  -22.5878 C   0  0  0  0  0  0  0  0  0  0  0  0
   -8.0430   -5.9384  -23.2078 C   0  0  0  0  0  0  0  0  0  0  0  0
   -8.8858   -6.0124  -22.5056 H   0  0  0  0  0  0  0  0  0  0  0  0
   -7.6452   -6.9519  -23.3161 H   0  0  0  0  0  0  0  0  0  0  0  0
   -6.0691   -5.0161  -23.2096 H   0  0  0  0  0  0  0  0  0  0  0  0
   -6.6429   -5.4367  -21.6161 H   0  0  0  0  0  0  0  0  0  0  0  0
   -9.0632   -2.3724  -22.8745 H   0  0  0  0  0  0  0  0  0  0  0  0
   -9.6173   -3.9390  -22.2795 H   0  0  0  0  0  0  0  0  0  0  0  0
  -10.0831   -3.8377  -24.6156 H   0  0  0  0  0  0  0  0  0  0  0  0
   -8.4801   -3.2360  -25.0251 H   0  0  0  0  0  0  0  0  0  0  0  0
  -10.5675   -6.0739  -24.4767 H   0  0  0  0  0  0  0  0  0  0  0  0
   -9.4018   -7.3439  -24.8116 H   0  0  0  0  0  0  0  0  0  0  0  0
   -9.1605   -6.5239  -27.1423 H   0  0  0  0  0  0  0  0  0  0  0  0
   -9.9333   -4.1278  -26.9829 H   0  0  0  0  0  0  0  0  0  0  0  0
  -11.4988   -4.6742  -26.3851 H   0  0  0  0  0  0  0  0  0  0  0  0
  -11.0126   -5.0559  -28.0298 H   0  0  0  0  0  0  0  0  0  0  0  0
  1  2  1  0
  2  3  1  0
  3  4  1  0
  3  5  1  0
  3  6  1  0
  2  7  1  0
  7  8  1  0
  8  9  1  0
  9 10  1  0
  9 11  1  0
  9 12  1  0
  8 13  1  0
 13 14  1  0
 14 15  1  0
 15 16  1  0
 16 17  2  0
 16 18  1  0
 18 19  1  0
 19 20  2  0
 20 21  1  0
 21 22  2  0
 22 23  1  0
 23 24  2  0
 24 25  1  0
 25 26  2  0
 26 27  1  0
 27 28  2  0
 27 29  1  0
 26 30  1  0
 25 31  1  0
 24 32  1  0
 22 33  1  0
 20 34  1  0
 18 35  1  0
 18 36  1  0
 15 37  1  0
 37 38  1  0
 38 39  1  0
 38 40  1  0
 37 41  1  0
 37 42  1  0
 14 43  1  0
 14 44  1  0
 13 45  1  0
 13 46  1  0
  7 47  1  0
  7 48  1  0
  2 49  1  0
  1 50  1  0
  1 51  1  0
  1 52  1  0
 38  8  1  0
 28 19  1  0
 28 23  1  0
M  END
>  <cnnaffinities>  (68) 
[5.12892]

>  <score>  (68) 
5.12892

>  <index>  (68) 
70

>  <Smiles>  (68) 
C(C(C([H])([H])[H])(C(C1(C([H])([H])[H])C(C(N(C(=O)C(c2c(nc(c3c(c(c(c(c23)[H])[H])[H])[H])[H])[H])([H])[H])C(C1([H])[H])([H])[H])([H])[H])([H])[H])([H])[H])[H])([H])([H])[H]

>  <h>  (68) 
<NA>

>  <Training>  (68) 
True

>  <Success>  (68) 
True

>  <enamine_searched>  (68) 
False

>  <enamine_id>  (68) 
nan

$$$$

     RDKit          3D

 50 54  0  0  0  0  0  0  0  0999 V2000
  -10.4448   -1.0461  -23.3758 C   0  0  0  0  0  0  0  0  0  0  0  0
   -9.0022   -1.3947  -23.0008 C   0  0  1  0  0  0  0  0  0  0  0  0
   -8.4215   -0.4686  -21.9165 C   0  0  0  0  0  0  0  0  0  0  0  0
   -7.4121   -1.2924  -21.2788 N   0  0  0  0  0  0  0  0  0  0  0  0
   -6.6010   -0.7983  -20.2306 C   0  0  0  0  0  0  0  0  0  0  0  0
   -6.9292   -1.0297  -18.9196 C   0  0  0  0  0  0  0  0  0  0  0  0
   -6.2601   -0.4901  -17.8732 N   0  0  0  0  0  0  0  0  0  0  0  0
   -5.2236    0.2666  -18.1298 C   0  0  0  0  0  0  0  0  0  0  0  0
   -4.7566    0.5591  -19.4407 C   0  0  0  0  0  0  0  0  0  0  0  0
   -3.6148    1.3694  -19.6702 C   0  0  0  0  0  0  0  0  0  0  0  0
   -3.2062    1.6281  -20.9496 C   0  0  0  0  0  0  0  0  0  0  0  0
   -3.9128    1.0863  -22.0490 C   0  0  0  0  0  0  0  0  0  0  0  0
   -5.0171    0.2944  -21.8509 C   0  0  0  0  0  0  0  0  0  0  0  0
   -5.4675    0.0183  -20.5334 C   0  0  0  0  0  0  0  0  0  0  0  0
   -5.5528   -0.1347  -22.6916 H   0  0  0  0  0  0  0  0  0  0  0  0
   -3.5733    1.2942  -23.0592 H   0  0  0  0  0  0  0  0  0  0  0  0
   -2.3293    2.2465  -21.1288 H   0  0  0  0  0  0  0  0  0  0  0  0
   -3.0810    1.7719  -18.8122 H   0  0  0  0  0  0  0  0  0  0  0  0
   -4.6974    0.6958  -17.2765 H   0  0  0  0  0  0  0  0  0  0  0  0
   -7.7737   -1.6642  -18.6554 H   0  0  0  0  0  0  0  0  0  0  0  0
   -7.5610   -2.6408  -21.5202 C   0  0  0  0  0  0  0  0  0  0  0  0
   -6.8085   -3.4925  -21.0904 O   0  0  0  0  0  0  0  0  0  0  0  0
   -8.7871   -2.8481  -22.4321 C   0  0  1  0  0  0  0  0  0  0  0  0
   -9.9865   -3.2838  -21.5545 C   0  0  0  0  0  0  0  0  0  0  0  0
  -11.1465   -3.6725  -22.3583 N   0  0  0  0  0  0  0  0  0  0  0  0
  -12.5088   -3.4884  -21.8799 C   0  0  0  0  0  0  0  0  0  0  0  0
  -13.3510   -2.6390  -22.7379 C   0  0  0  0  0  0  0  0  0  0  0  0
  -14.0495   -1.9661  -23.3705 N   0  0  0  0  0  0  0  0  0  0  0  0
  -12.5191   -3.0467  -20.8820 H   0  0  0  0  0  0  0  0  0  0  0  0
  -12.9987   -4.4607  -21.8237 H   0  0  0  0  0  0  0  0  0  0  0  0
  -10.9987   -4.5322  -23.4224 C   0  0  0  0  0  0  0  0  0  0  0  0
  -11.9513   -5.0765  -23.9601 O   0  0  0  0  0  0  0  0  0  0  0  0
   -9.5987   -4.7321  -23.9165 C   0  0  0  0  0  0  0  0  0  0  0  0
   -9.3695   -5.7472  -24.8447 C   0  0  0  0  0  0  0  0  0  0  0  0
   -8.1069   -5.9481  -25.3715 C   0  0  0  0  0  0  0  0  0  0  0  0
   -7.0806   -5.1014  -24.9685 C   0  0  0  0  0  0  0  0  0  0  0  0
   -5.8509   -5.2896  -25.4748 F   0  0  0  0  0  0  0  0  0  0  0  0
   -7.2712   -4.1059  -24.0312 C   0  0  0  0  0  0  0  0  0  0  0  0
   -8.5443   -3.9228  -23.4731 C   0  0  0  0  0  0  0  0  0  0  0  0
   -6.4126   -3.5415  -23.6849 H   0  0  0  0  0  0  0  0  0  0  0  0
   -7.9087   -6.7533  -26.0686 H   0  0  0  0  0  0  0  0  0  0  0  0
  -10.2153   -6.3570  -25.1491 H   0  0  0  0  0  0  0  0  0  0  0  0
   -9.6752   -4.1265  -20.9297 H   0  0  0  0  0  0  0  0  0  0  0  0
  -10.2277   -2.4455  -20.8901 H   0  0  0  0  0  0  0  0  0  0  0  0
   -9.2015   -0.1428  -21.2079 H   0  0  0  0  0  0  0  0  0  0  0  0
   -7.9920    0.4529  -22.3225 H   0  0  0  0  0  0  0  0  0  0  0  0
   -8.3785   -1.3303  -23.9020 H   0  0  0  0  0  0  0  0  0  0  0  0
  -10.5418   -0.0639  -23.8510 H   0  0  0  0  0  0  0  0  0  0  0  0
  -11.0833   -1.0368  -22.4845 H   0  0  0  0  0  0  0  0  0  0  0  0
  -10.8536   -1.7972  -24.0604 H   0  0  0  0  0  0  0  0  0  0  0  0
  1  2  1  0
  2  3  1  0
  3  4  1  0
  4  5  1  0
  5  6  2  0
  6  7  1  0
  7  8  2  0
  8  9  1  0
  9 10  2  0
 10 11  1  0
 11 12  2  0
 12 13  1  0
 13 14  2  0
 13 15  1  0
 12 16  1  0
 11 17  1  0
 10 18  1  0
  8 19  1  0
  6 20  1  0
  4 21  1  0
 21 22  2  0
 21 23  1  0
 23 24  1  1
 24 25  1  0
 25 26  1  0
 26 27  1  0
 27 28  3  0
 26 29  1  0
 26 30  1  0
 25 31  1  0
 31 32  2  0
 31 33  1  0
 33 34  2  0
 34 35  1  0
 35 36  2  0
 36 37  1  0
 36 38  1  0
 38 39  2  0
 38 40  1  0
 35 41  1  0
 34 42  1  0
 24 43  1  0
 24 44  1  0
  3 45  1  0
  3 46  1  0
  2 47  1  6
  1 48  1  0
  1 49  1  0
  1 50  1  0
 23  2  1  0
 39 33  1  0
 14  5  1  0
 39 23  1  0
 14  9  1  0
M  END
>  <cnnaffinities>  (69) 
[6.51259]

>  <score>  (69) 
6.51259

>  <index>  (69) 
71

>  <Smiles>  (69) 
C([C@]1(C(N(c2c(nc(c3c(c(c(c(c23)[H])[H])[H])[H])[H])[H])C(=O)[C@]21C(N(C(C#N)([H])[H])C(=O)c1c(c(c(F)c(c21)[H])[H])[H])([H])[H])([H])[H])[H])([H])([H])[H]

>  <h>  (69) 
<NA>

>  <Training>  (69) 
True

>  <Success>  (69) 
True

>  <enamine_searched>  (69) 
False

>  <enamine_id>  (69) 
nan

$$$$

     RDKit          3D

 41 44  0  0  0  0  0  0  0  0999 V2000
   -8.6913    0.6940  -21.2846 O   0  0  0  0  0  0  0  0  0  0  0  0
   -8.6451   -0.4481  -21.7214 C   0  0  0  0  0  0  0  0  0  0  0  0
   -7.5100   -1.4011  -21.3160 C   0  0  0  0  0  0  0  0  0  0  0  0
   -6.6344   -0.8114  -20.2457 C   0  0  0  0  0  0  0  0  0  0  0  0
   -6.9676   -0.9831  -18.9306 C   0  0  0  0  0  0  0  0  0  0  0  0
   -6.3044   -0.4600  -17.8685 N   0  0  0  0  0  0  0  0  0  0  0  0
   -5.2459    0.2658  -18.1318 C   0  0  0  0  0  0  0  0  0  0  0  0
   -4.7771    0.5395  -19.4427 C   0  0  0  0  0  0  0  0  0  0  0  0
   -3.6292    1.3387  -19.6689 C   0  0  0  0  0  0  0  0  0  0  0  0
   -3.2290    1.6261  -20.9442 C   0  0  0  0  0  0  0  0  0  0  0  0
   -3.9614    1.1254  -22.0417 C   0  0  0  0  0  0  0  0  0  0  0  0
   -5.0720    0.3425  -21.8492 C   0  0  0  0  0  0  0  0  0  0  0  0
   -5.5042    0.0115  -20.5383 C   0  0  0  0  0  0  0  0  0  0  0  0
   -5.6330   -0.0197  -22.7057 H   0  0  0  0  0  0  0  0  0  0  0  0
   -3.6357    1.3672  -23.0489 H   0  0  0  0  0  0  0  0  0  0  0  0
   -2.3628    2.2581  -21.1154 H   0  0  0  0  0  0  0  0  0  0  0  0
   -3.0872    1.7261  -18.8101 H   0  0  0  0  0  0  0  0  0  0  0  0
   -4.7096    0.6794  -17.2781 H   0  0  0  0  0  0  0  0  0  0  0  0
   -7.8389   -1.5865  -18.6778 H   0  0  0  0  0  0  0  0  0  0  0  0
   -7.9592   -2.3369  -20.9458 H   0  0  0  0  0  0  0  0  0  0  0  0
   -6.9177   -1.6641  -22.2012 H   0  0  0  0  0  0  0  0  0  0  0  0
   -9.6108   -0.9532  -22.5612 N   0  0  0  0  0  0  0  0  0  0  0  0
   -9.5607   -2.2627  -23.2245 C   0  0  0  0  0  0  0  0  0  0  0  0
  -10.2954   -3.3618  -22.4414 C   0  0  0  0  0  0  0  0  0  0  0  0
  -11.5266   -2.7927  -21.7096 C   0  0  0  0  0  0  0  0  0  0  0  0
  -12.4209   -1.8697  -22.5165 C   0  0  0  0  0  0  0  0  0  0  0  0
  -14.1365   -2.1205  -22.6487 S   0  0  0  0  0  0  0  0  0  0  0  0
  -14.3444   -0.6408  -23.5044 C   0  0  0  0  0  0  0  0  0  0  0  0
  -13.1679    0.0161  -23.6661 C   0  0  0  0  0  0  0  0  0  0  0  0
  -12.0529   -0.6705  -23.0677 C   0  0  0  0  0  0  0  0  0  0  0  0
  -10.6794   -0.0364  -22.9485 C   0  0  0  0  0  0  0  0  0  0  0  0
  -10.4037    0.4630  -23.8921 H   0  0  0  0  0  0  0  0  0  0  0  0
  -10.7204    0.7603  -22.1934 H   0  0  0  0  0  0  0  0  0  0  0  0
  -13.1214    0.9652  -24.1915 H   0  0  0  0  0  0  0  0  0  0  0  0
  -15.3327   -0.2767  -23.7593 H   0  0  0  0  0  0  0  0  0  0  0  0
  -12.1194   -3.5782  -21.2292 H   0  0  0  0  0  0  0  0  0  0  0  0
  -11.1122   -2.1606  -20.9134 H   0  0  0  0  0  0  0  0  0  0  0  0
   -9.6375   -3.8178  -21.6913 H   0  0  0  0  0  0  0  0  0  0  0  0
  -10.5615   -4.1742  -23.1313 H   0  0  0  0  0  0  0  0  0  0  0  0
  -10.0953   -2.1548  -24.1752 H   0  0  0  0  0  0  0  0  0  0  0  0
   -8.5240   -2.5630  -23.4441 H   0  0  0  0  0  0  0  0  0  0  0  0
  1  2  2  0
  2  3  1  0
  3  4  1  0
  4  5  2  0
  5  6  1  0
  6  7  2  0
  7  8  1  0
  8  9  2  0
  9 10  1  0
 10 11  2  0
 11 12  1  0
 12 13  2  0
 12 14  1  0
 11 15  1  0
 10 16  1  0
  9 17  1  0
  7 18  1  0
  5 19  1  0
  3 20  1  0
  3 21  1  0
  2 22  1  0
 22 23  1  0
 23 24  1  0
 24 25  1  0
 25 26  1  0
 26 27  1  0
 27 28  1  0
 28 29  2  0
 29 30  1  0
 30 31  1  0
 31 32  1  0
 31 33  1  0
 29 34  1  0
 28 35  1  0
 25 36  1  0
 25 37  1  0
 24 38  1  0
 24 39  1  0
 23 40  1  0
 23 41  1  0
 13  4  1  0
 31 22  1  0
 13  8  1  0
 30 26  2  0
M  END
>  <cnnaffinities>  (70) 
[5.50325, 5.70713, 5.09157, 5.30633]

>  <score>  (70) 
5.50325

>  <index>  (70) 
72

>  <Smiles>  (70) 
O=C(C(c1c(nc(c2c(c(c(c(c12)[H])[H])[H])[H])[H])[H])([H])[H])N1C(C(C(c2sc(c(c2C1([H])[H])[H])[H])([H])[H])([H])[H])([H])[H]

>  <h>  (70) 
<NA>

>  <Training>  (70) 
True

>  <Success>  (70) 
True

>  <enamine_searched>  (70) 
False

>  <enamine_id>  (70) 
nan

$$$$

     RDKit          3D

 50 53  0  0  0  0  0  0  0  0999 V2000
   -5.5994   -3.0274  -21.5802 O   0  0  0  0  0  0  0  0  0  0  0  0
   -6.7577   -2.7542  -21.8607 C   0  0  0  0  0  0  0  0  0  0  0  0
   -7.4152   -1.4808  -21.2713 C   0  0  0  0  0  0  0  0  0  0  0  0
   -6.5800   -0.8318  -20.1907 C   0  0  0  0  0  0  0  0  0  0  0  0
   -6.8753   -1.0393  -18.8718 C   0  0  0  0  0  0  0  0  0  0  0  0
   -6.1966   -0.5145  -17.8181 N   0  0  0  0  0  0  0  0  0  0  0  0
   -5.1559    0.2311  -18.0753 C   0  0  0  0  0  0  0  0  0  0  0  0
   -4.7159    0.5308  -19.3879 C   0  0  0  0  0  0  0  0  0  0  0  0
   -3.5882    1.3559  -19.6256 C   0  0  0  0  0  0  0  0  0  0  0  0
   -3.1873    1.6324  -20.9015 C   0  0  0  0  0  0  0  0  0  0  0  0
   -3.9015    1.0873  -21.9936 C   0  0  0  0  0  0  0  0  0  0  0  0
   -4.9984    0.2878  -21.7877 C   0  0  0  0  0  0  0  0  0  0  0  0
   -5.4447   -0.0136  -20.4788 C   0  0  0  0  0  0  0  0  0  0  0  0
   -5.5266   -0.1322  -22.6373 H   0  0  0  0  0  0  0  0  0  0  0  0
   -3.5765    1.3110  -23.0040 H   0  0  0  0  0  0  0  0  0  0  0  0
   -2.3280    2.2717  -21.0864 H   0  0  0  0  0  0  0  0  0  0  0  0
   -3.0560    1.7734  -18.7718 H   0  0  0  0  0  0  0  0  0  0  0  0
   -4.6027    0.6276  -17.2183 H   0  0  0  0  0  0  0  0  0  0  0  0
   -7.7165   -1.6667  -18.5836 H   0  0  0  0  0  0  0  0  0  0  0  0
   -7.6152   -0.7499  -22.0668 H   0  0  0  0  0  0  0  0  0  0  0  0
   -8.3954   -1.7475  -20.8492 H   0  0  0  0  0  0  0  0  0  0  0  0
   -7.5205   -3.5829  -22.6609 N   0  0  0  0  0  0  0  0  0  0  0  0
   -8.6628   -3.1245  -23.4506 C   0  0  0  0  0  0  0  0  0  0  0  0
   -9.7327   -4.1994  -23.5639 C   0  0  0  0  0  0  0  0  0  0  0  0
   -9.1565   -5.4960  -24.1060 C   0  0  0  0  0  0  0  0  0  0  0  0
   -7.9836   -5.9344  -23.2420 C   0  0  0  0  0  0  0  0  0  0  0  0
   -6.9118   -4.8514  -23.1003 C   0  0  1  0  0  0  0  0  0  0  0  0
   -6.0433   -4.6965  -24.3693 C   0  0  0  0  0  0  0  0  0  0  0  0
   -5.2085   -5.9199  -24.6884 C   0  0  0  0  0  0  0  0  0  0  0  0
   -4.0474   -6.1892  -23.9582 C   0  0  0  0  0  0  0  0  0  0  0  0
   -3.2847   -7.3203  -24.2205 C   0  0  0  0  0  0  0  0  0  0  0  0
   -3.6703   -8.2114  -25.2178 C   0  0  0  0  0  0  0  0  0  0  0  0
   -4.8275   -7.9605  -25.9499 C   0  0  0  0  0  0  0  0  0  0  0  0
   -5.5853   -6.8245  -25.6835 C   0  0  0  0  0  0  0  0  0  0  0  0
   -6.4944   -6.6407  -26.2528 H   0  0  0  0  0  0  0  0  0  0  0  0
   -5.1416   -8.6464  -26.7313 H   0  0  0  0  0  0  0  0  0  0  0  0
   -3.0714   -9.0922  -25.4249 H   0  0  0  0  0  0  0  0  0  0  0  0
   -2.3833   -7.5095  -23.6432 H   0  0  0  0  0  0  0  0  0  0  0  0
   -3.7429   -5.5004  -23.1733 H   0  0  0  0  0  0  0  0  0  0  0  0
   -6.6854   -4.4574  -25.2239 H   0  0  0  0  0  0  0  0  0  0  0  0
   -5.3823   -3.8380  -24.2150 H   0  0  0  0  0  0  0  0  0  0  0  0
   -6.2395   -5.1514  -22.2975 H   0  0  0  0  0  0  0  0  0  0  0  0
   -8.3472   -6.1915  -22.2441 H   0  0  0  0  0  0  0  0  0  0  0  0
   -7.5384   -6.8523  -23.6375 H   0  0  0  0  0  0  0  0  0  0  0  0
   -9.9239   -6.2712  -24.1410 H   0  0  0  0  0  0  0  0  0  0  0  0
   -8.8345   -5.3714  -25.1466 H   0  0  0  0  0  0  0  0  0  0  0  0
  -10.1656   -4.3766  -22.5768 H   0  0  0  0  0  0  0  0  0  0  0  0
  -10.5507   -3.8484  -24.1991 H   0  0  0  0  0  0  0  0  0  0  0  0
   -9.0837   -2.2316  -22.9917 H   0  0  0  0  0  0  0  0  0  0  0  0
   -8.3547   -2.8303  -24.4652 H   0  0  0  0  0  0  0  0  0  0  0  0
  1  2  2  0
  2  3  1  0
  3  4  1  0
  4  5  2  0
  5  6  1  0
  6  7  2  0
  7  8  1  0
  8  9  2  0
  9 10  1  0
 10 11  2  0
 11 12  1  0
 12 13  2  0
 12 14  1  0
 11 15  1  0
 10 16  1  0
  9 17  1  0
  7 18  1  0
  5 19  1  0
  3 20  1  0
  3 21  1  0
  2 22  1  0
 22 23  1  0
 23 24  1  0
 24 25  1  0
 25 26  1  0
 26 27  1  0
 27 28  1  0
 28 29  1  0
 29 30  2  0
 30 31  1  0
 31 32  2  0
 32 33  1  0
 33 34  2  0
 34 35  1  0
 33 36  1  0
 32 37  1  0
 31 38  1  0
 30 39  1  0
 28 40  1  0
 28 41  1  0
 27 42  1  1
 26 43  1  0
 26 44  1  0
 25 45  1  0
 25 46  1  0
 24 47  1  0
 24 48  1  0
 23 49  1  0
 23 50  1  0
 13  4  1  0
 27 22  1  0
 34 29  1  0
 13  8  1  0
M  END
>  <cnnaffinities>  (71) 
[5.67316]

>  <score>  (71) 
5.67316

>  <index>  (71) 
73

>  <Smiles>  (71) 
O=C(C(c1c(nc(c2c(c(c(c(c12)[H])[H])[H])[H])[H])[H])([H])[H])N1C(C(C(C([C@]1(C(c1c(c(c(c(c1[H])[H])[H])[H])[H])([H])[H])[H])([H])[H])([H])[H])([H])[H])([H])[H]

>  <h>  (71) 
<NA>

>  <Training>  (71) 
True

>  <Success>  (71) 
True

>  <enamine_searched>  (71) 
False

>  <enamine_id>  (71) 
nan

$$$$

     RDKit          3D

 43 47  0  0  0  0  0  0  0  0999 V2000
   -9.4274   -0.4502  -20.9910 O   0  0  0  0  0  0  0  0  0  0  0  0
   -8.7456   -1.3627  -21.3822 C   0  0  0  0  0  0  0  0  0  0  0  0
   -9.1379   -2.4530  -22.1125 N   0  0  0  0  0  0  0  0  0  0  0  0
   -8.0409   -3.1479  -22.7395 C   0  0  1  0  0  0  0  0  0  0  0  0
   -8.1055   -4.6902  -22.7153 C   0  0  0  0  0  0  0  0  0  0  0  0
   -8.2246   -4.7217  -24.2732 C   0  0  2  0  0  0  0  0  0  0  0  0
   -7.1755   -5.5201  -24.9821 C   0  0  0  0  0  0  0  0  0  0  0  0
   -5.8189   -5.2752  -24.7372 C   0  0  0  0  0  0  0  0  0  0  0  0
   -4.8266   -6.0074  -25.3789 C   0  0  0  0  0  0  0  0  0  0  0  0
   -5.1759   -7.0046  -26.2874 C   0  0  0  0  0  0  0  0  0  0  0  0
   -6.5151   -7.2566  -26.5502 C   0  0  0  0  0  0  0  0  0  0  0  0
   -7.4965   -6.5270  -25.8918 C   0  0  0  0  0  0  0  0  0  0  0  0
   -9.1647   -6.9155  -26.2475 Cl  0  0  0  0  0  0  0  0  0  0  0  0
   -6.8152   -8.0003  -27.2778 H   0  0  0  0  0  0  0  0  0  0  0  0
   -4.4101   -7.5842  -26.7957 H   0  0  0  0  0  0  0  0  0  0  0  0
   -3.7821   -5.7931  -25.1727 H   0  0  0  0  0  0  0  0  0  0  0  0
   -5.5484   -4.4933  -24.0253 H   0  0  0  0  0  0  0  0  0  0  0  0
   -8.0356   -3.1697  -24.2974 C   0  0  0  0  0  0  0  0  0  0  0  0
   -8.8566   -2.6029  -24.7514 H   0  0  0  0  0  0  0  0  0  0  0  0
   -7.0981   -2.8278  -24.7556 H   0  0  0  0  0  0  0  0  0  0  0  0
   -9.2250   -5.0190  -24.6025 H   0  0  0  0  0  0  0  0  0  0  0  0
   -8.9694   -5.0686  -22.1621 H   0  0  0  0  0  0  0  0  0  0  0  0
   -7.1937   -5.1508  -22.3157 H   0  0  0  0  0  0  0  0  0  0  0  0
   -6.8399   -2.5170  -22.0535 C   0  0  0  0  0  0  0  0  0  0  0  0
   -5.6789   -2.8077  -22.2297 O   0  0  0  0  0  0  0  0  0  0  0  0
   -7.3403   -1.5150  -21.2107 N   0  0  0  0  0  0  0  0  0  0  0  0
   -6.5830   -0.8557  -20.1945 C   0  0  0  0  0  0  0  0  0  0  0  0
   -6.9133   -1.0468  -18.8756 C   0  0  0  0  0  0  0  0  0  0  0  0
   -6.2269   -0.5135  -17.8395 N   0  0  0  0  0  0  0  0  0  0  0  0
   -5.1799    0.2201  -18.1072 C   0  0  0  0  0  0  0  0  0  0  0  0
   -4.7406    0.5248  -19.4202 C   0  0  0  0  0  0  0  0  0  0  0  0
   -3.6096    1.3549  -19.6438 C   0  0  0  0  0  0  0  0  0  0  0  0
   -3.2216    1.6600  -20.9171 C   0  0  0  0  0  0  0  0  0  0  0  0
   -3.9543    1.1459  -22.0115 C   0  0  0  0  0  0  0  0  0  0  0  0
   -5.0479    0.3379  -21.8195 C   0  0  0  0  0  0  0  0  0  0  0  0
   -5.4662   -0.0116  -20.5063 C   0  0  0  0  0  0  0  0  0  0  0  0
   -5.5988   -0.0496  -22.6705 H   0  0  0  0  0  0  0  0  0  0  0  0
   -3.6469    1.3986  -23.0196 H   0  0  0  0  0  0  0  0  0  0  0  0
   -2.3665    2.3087  -21.0942 H   0  0  0  0  0  0  0  0  0  0  0  0
   -3.0808    1.7541  -18.7832 H   0  0  0  0  0  0  0  0  0  0  0  0
   -4.6268    0.6131  -17.2561 H   0  0  0  0  0  0  0  0  0  0  0  0
   -7.7532   -1.6785  -18.5994 H   0  0  0  0  0  0  0  0  0  0  0  0
  -10.1014   -2.6044  -22.3679 H   0  0  0  0  0  0  0  0  0  0  0  0
  1  2  2  0
  2  3  1  0
  4  3  1  6
  4  5  1  0
  5  6  1  0
  6  7  1  0
  7  8  2  0
  8  9  1  0
  9 10  2  0
 10 11  1  0
 11 12  2  0
 12 13  1  0
 11 14  1  0
 10 15  1  0
  9 16  1  0
  8 17  1  0
  6 18  1  0
 18 19  1  0
 18 20  1  0
  6 21  1  1
  5 22  1  0
  5 23  1  0
  4 24  1  0
 24 25  2  0
 24 26  1  0
 26 27  1  0
 27 28  2  0
 28 29  1  0
 29 30  2  0
 30 31  1  0
 31 32  2  0
 32 33  1  0
 33 34  2  0
 34 35  1  0
 35 36  2  0
 35 37  1  0
 34 38  1  0
 33 39  1  0
 32 40  1  0
 30 41  1  0
 28 42  1  0
  3 43  1  0
 26  2  1  0
 36 27  1  0
 18  4  1  0
 36 31  1  0
 12  7  1  0
M  END
>  <cnnaffinities>  (72) 
[5.77581]

>  <score>  (72) 
5.77581

>  <index>  (72) 
74

>  <Smiles>  (72) 
O=C1N([C@]2(C([C@](c3c(c(c(c(c3Cl)[H])[H])[H])[H])(C2([H])[H])[H])([H])[H])C(=O)N1c1c(nc(c2c(c(c(c(c12)[H])[H])[H])[H])[H])[H])[H]

>  <h>  (72) 
<NA>

>  <Training>  (72) 
True

>  <Success>  (72) 
True

>  <enamine_searched>  (72) 
False

>  <enamine_id>  (72) 
nan

$$$$

     RDKit          3D

 66 71  0  0  0  0  0  0  0  0999 V2000
   -7.4773    3.2629  -21.7471 C   0  0  0  0  0  0  0  0  0  0  0  0
   -8.5409    2.7946  -22.6184 N   0  0  0  0  0  0  0  0  0  0  0  0
   -8.1833    2.0097  -23.6702 C   0  0  0  0  0  0  0  0  0  0  0  0
   -7.0218    1.7226  -23.9219 O   0  0  0  0  0  0  0  0  0  0  0  0
   -9.3319    1.5173  -24.5376 C   0  0  0  0  0  0  0  0  0  0  0  0
   -9.9061    0.3152  -23.9754 N   0  0  0  0  0  0  0  0  0  0  0  0
   -9.1240   -0.9058  -23.9998 C   0  0  0  0  0  0  0  0  0  0  0  0
   -9.2882   -1.6963  -22.6738 C   0  0  2  0  0  0  0  0  0  0  0  0
   -8.6649   -0.8566  -21.5283 C   0  0  0  0  0  0  0  0  0  0  0  0
   -9.1490    0.1284  -21.0082 O   0  0  0  0  0  0  0  0  0  0  0  0
   -7.4333   -1.3924  -21.2148 N   0  0  0  0  0  0  0  0  0  0  0  0
   -6.6191   -0.8163  -20.2036 C   0  0  0  0  0  0  0  0  0  0  0  0
   -6.9410   -1.0162  -18.8841 C   0  0  0  0  0  0  0  0  0  0  0  0
   -6.2467   -0.5031  -17.8434 N   0  0  0  0  0  0  0  0  0  0  0  0
   -5.1920    0.2249  -18.1091 C   0  0  0  0  0  0  0  0  0  0  0  0
   -4.7458    0.5198  -19.4254 C   0  0  0  0  0  0  0  0  0  0  0  0
   -3.6193    1.3526  -19.6578 C   0  0  0  0  0  0  0  0  0  0  0  0
   -3.2348    1.6560  -20.9336 C   0  0  0  0  0  0  0  0  0  0  0  0
   -3.9549    1.1379  -22.0308 C   0  0  0  0  0  0  0  0  0  0  0  0
   -5.0512    0.3284  -21.8322 C   0  0  0  0  0  0  0  0  0  0  0  0
   -5.4765   -0.0103  -20.5188 C   0  0  0  0  0  0  0  0  0  0  0  0
   -5.6199   -0.0090  -22.6923 H   0  0  0  0  0  0  0  0  0  0  0  0
   -3.6467    1.3909  -23.0408 H   0  0  0  0  0  0  0  0  0  0  0  0
   -2.3821    2.3048  -21.1086 H   0  0  0  0  0  0  0  0  0  0  0  0
   -3.0881    1.7523  -18.7979 H   0  0  0  0  0  0  0  0  0  0  0  0
   -4.6256    0.6245  -17.2650 H   0  0  0  0  0  0  0  0  0  0  0  0
   -7.8023   -1.6278  -18.6273 H   0  0  0  0  0  0  0  0  0  0  0  0
   -7.0997   -2.5802  -21.9845 C   0  0  0  0  0  0  0  0  0  0  0  0
   -8.4349   -2.9886  -22.6296 C   0  0  2  0  0  0  0  0  0  0  0  0
   -8.2422   -3.7561  -23.9387 C   0  0  0  0  0  0  0  0  0  0  0  0
   -9.4898   -4.2265  -24.4859 N   0  0  0  0  0  0  0  0  0  0  0  0
   -9.5879   -4.8855  -25.6804 C   0  0  0  0  0  0  0  0  0  0  0  0
   -8.4578   -5.2095  -26.4767 C   0  0  0  0  0  0  0  0  0  0  0  0
   -8.5704   -5.8384  -27.6365 N   0  0  0  0  0  0  0  0  0  0  0  0
   -9.8063   -6.1689  -28.0263 C   0  0  0  0  0  0  0  0  0  0  0  0
  -10.9108   -5.8592  -27.2460 C   0  0  0  0  0  0  0  0  0  0  0  0
  -10.8164   -5.2215  -26.0802 N   0  0  0  0  0  0  0  0  0  0  0  0
  -11.9180   -6.1264  -27.5629 H   0  0  0  0  0  0  0  0  0  0  0  0
   -9.9130   -6.6884  -28.9748 H   0  0  0  0  0  0  0  0  0  0  0  0
   -7.4486   -4.9505  -26.1625 H   0  0  0  0  0  0  0  0  0  0  0  0
  -10.3713   -4.0255  -24.0294 H   0  0  0  0  0  0  0  0  0  0  0  0
   -7.5883   -4.6164  -23.7493 H   0  0  0  0  0  0  0  0  0  0  0  0
   -7.7223   -3.1235  -24.6757 H   0  0  0  0  0  0  0  0  0  0  0  0
   -8.9329   -3.6671  -21.9323 H   0  0  0  0  0  0  0  0  0  0  0  0
   -6.3332   -2.3635  -22.7437 H   0  0  0  0  0  0  0  0  0  0  0  0
   -6.7149   -3.3691  -21.3328 H   0  0  0  0  0  0  0  0  0  0  0  0
  -10.7771   -1.9030  -22.4446 C   0  0  0  0  0  0  0  0  0  0  0  0
  -11.2902   -2.9721  -21.6997 C   0  0  0  0  0  0  0  0  0  0  0  0
  -12.6432   -3.0357  -21.4197 C   0  0  0  0  0  0  0  0  0  0  0  0
  -13.2472   -4.2270  -20.3185 Cl  0  0  0  0  0  0  0  0  0  0  0  0
  -13.5422   -2.0918  -21.8982 C   0  0  0  0  0  0  0  0  0  0  0  0
  -13.0521   -1.0430  -22.6456 C   0  0  0  0  0  0  0  0  0  0  0  0
  -11.6809   -0.9180  -22.8704 C   0  0  0  0  0  0  0  0  0  0  0  0
  -11.1765    0.3518  -23.4845 C   0  0  0  0  0  0  0  0  0  0  0  0
  -11.8637    1.3671  -23.5185 O   0  0  0  0  0  0  0  0  0  0  0  0
  -13.7229   -0.2798  -23.0212 H   0  0  0  0  0  0  0  0  0  0  0  0
  -14.5809   -2.1580  -21.5969 H   0  0  0  0  0  0  0  0  0  0  0  0
  -10.6622   -3.7262  -21.2409 H   0  0  0  0  0  0  0  0  0  0  0  0
   -8.0776   -0.6248  -24.1595 H   0  0  0  0  0  0  0  0  0  0  0  0
   -9.4573   -1.5255  -24.8416 H   0  0  0  0  0  0  0  0  0  0  0  0
  -10.1126    2.2763  -24.5392 H   0  0  0  0  0  0  0  0  0  0  0  0
   -8.9382    1.3386  -25.5497 H   0  0  0  0  0  0  0  0  0  0  0  0
   -9.4816    2.7545  -22.2403 H   0  0  0  0  0  0  0  0  0  0  0  0
   -7.9019    3.7559  -20.8707 H   0  0  0  0  0  0  0  0  0  0  0  0
   -6.8450    2.4142  -21.4494 H   0  0  0  0  0  0  0  0  0  0  0  0
   -6.8522    3.9875  -22.2763 H   0  0  0  0  0  0  0  0  0  0  0  0
  1  2  1  0
  2  3  1  0
  3  4  2  0
  3  5  1  0
  5  6  1  0
  6  7  1  0
  8  7  1  6
  8  9  1  0
  9 10  2  0
  9 11  1  0
 11 12  1  0
 12 13  2  0
 13 14  1  0
 14 15  2  0
 15 16  1  0
 16 17  2  0
 17 18  1  0
 18 19  2  0
 19 20  1  0
 20 21  2  0
 20 22  1  0
 19 23  1  0
 18 24  1  0
 17 25  1  0
 15 26  1  0
 13 27  1  0
 11 28  1  0
 28 29  1  0
 29 30  1  0
 30 31  1  0
 31 32  1  0
 32 33  2  0
 33 34  1  0
 34 35  2  0
 35 36  1  0
 36 37  2  0
 36 38  1  0
 35 39  1  0
 33 40  1  0
 31 41  1  0
 30 42  1  0
 30 43  1  0
 29 44  1  1
 28 45  1  0
 28 46  1  0
  8 47  1  0
 47 48  2  0
 48 49  1  0
 49 50  1  0
 49 51  2  0
 51 52  1  0
 52 53  2  0
 53 54  1  0
 54 55  2  0
 52 56  1  0
 51 57  1  0
 48 58  1  0
  7 59  1  0
  7 60  1  0
  5 61  1  0
  5 62  1  0
  2 63  1  0
  1 64  1  0
  1 65  1  0
  1 66  1  0
 54  6  1  0
 29  8  1  0
 37 32  1  0
 53 47  1  0
 21 12  1  0
 21 16  1  0
M  END
>  <cnnaffinities>  (73) 
[6.56802, 6.409]

>  <score>  (73) 
6.56802

>  <index>  (73) 
75

>  <Smiles>  (73) 
C(N(C(=O)C(N1C([C@@]2(C(=O)N(c3c(nc(c4c(c(c(c(c34)[H])[H])[H])[H])[H])[H])C([C@@]2(C(N(c2c(nc(c(n2)[H])[H])[H])[H])([H])[H])[H])([H])[H])c2c(c(Cl)c(c(c2C1=O)[H])[H])[H])([H])[H])([H])[H])[H])([H])([H])[H]

>  <h>  (73) 
<NA>

>  <Training>  (73) 
True

>  <Success>  (73) 
True

>  <enamine_searched>  (73) 
False

>  <enamine_id>  (73) 
nan

$$$$

     RDKit          3D

 66 71  0  0  0  0  0  0  0  0999 V2000
   -8.1117   -3.8217  -23.9128 C   0  0  0  0  0  0  0  0  0  0  0  0
   -8.3373   -3.0301  -22.6237 C   0  0  1  0  0  0  0  0  0  0  0  0
   -7.0212   -2.5978  -21.9385 C   0  0  0  0  0  0  0  0  0  0  0  0
   -7.4005   -1.4080  -21.1975 N   0  0  0  0  0  0  0  0  0  0  0  0
   -6.6081   -0.8094  -20.1815 C   0  0  0  0  0  0  0  0  0  0  0  0
   -6.9153   -1.0272  -18.8622 C   0  0  0  0  0  0  0  0  0  0  0  0
   -6.2166   -0.5120  -17.8248 N   0  0  0  0  0  0  0  0  0  0  0  0
   -5.1697    0.2258  -18.0917 C   0  0  0  0  0  0  0  0  0  0  0  0
   -4.7301    0.5324  -19.4090 C   0  0  0  0  0  0  0  0  0  0  0  0
   -3.6024    1.3633  -19.6446 C   0  0  0  0  0  0  0  0  0  0  0  0
   -3.2145    1.6554  -20.9238 C   0  0  0  0  0  0  0  0  0  0  0  0
   -3.9356    1.1255  -22.0164 C   0  0  0  0  0  0  0  0  0  0  0  0
   -5.0314    0.3162  -21.8125 C   0  0  0  0  0  0  0  0  0  0  0  0
   -5.4652   -0.0011  -20.4956 C   0  0  0  0  0  0  0  0  0  0  0  0
   -5.5778   -0.0757  -22.6648 H   0  0  0  0  0  0  0  0  0  0  0  0
   -3.6322    1.3705  -23.0305 H   0  0  0  0  0  0  0  0  0  0  0  0
   -2.3664    2.3098  -21.1054 H   0  0  0  0  0  0  0  0  0  0  0  0
   -3.0769    1.7756  -18.7878 H   0  0  0  0  0  0  0  0  0  0  0  0
   -4.6154    0.6202  -17.2400 H   0  0  0  0  0  0  0  0  0  0  0  0
   -7.7565   -1.6617  -18.5948 H   0  0  0  0  0  0  0  0  0  0  0  0
   -8.6358   -0.9078  -21.5389 C   0  0  0  0  0  0  0  0  0  0  0  0
   -9.1650    0.0400  -20.9916 O   0  0  0  0  0  0  0  0  0  0  0  0
   -9.1822   -1.7301  -22.7395 C   0  0  1  0  0  0  0  0  0  0  0  0
   -8.8866   -0.9662  -24.0643 C   0  0  0  0  0  0  0  0  0  0  0  0
   -9.6103    0.2915  -24.1534 N   0  0  0  0  0  0  0  0  0  0  0  0
   -8.8753    1.5049  -24.4877 C   0  0  0  0  0  0  0  0  0  0  0  0
   -8.2731    2.1685  -23.2458 C   0  0  0  0  0  0  0  0  0  0  0  0
   -7.5973    3.4745  -23.5230 N   0  0  0  0  0  4  0  0  0  0  0  0
   -6.3401    3.3525  -24.3705 C   0  0  0  0  0  0  0  0  0  0  0  0
   -5.6262    4.6973  -24.4885 C   0  0  0  0  0  0  0  0  0  0  0  0
   -5.3541    5.2809  -23.2336 O   0  0  0  0  0  0  0  0  0  0  0  0
   -6.5742    5.5223  -22.5633 C   0  0  0  0  0  0  0  0  0  0  0  0
   -7.2738    4.2068  -22.2353 C   0  0  0  0  0  0  0  0  0  0  0  0
   -8.2088    4.3721  -21.6921 H   0  0  0  0  0  0  0  0  0  0  0  0
   -6.6341    3.5489  -21.6355 H   0  0  0  0  0  0  0  0  0  0  0  0
   -7.2433    6.1075  -23.2129 H   0  0  0  0  0  0  0  0  0  0  0  0
   -6.3456    6.1399  -21.6944 H   0  0  0  0  0  0  0  0  0  0  0  0
   -4.6672    4.5827  -25.0014 H   0  0  0  0  0  0  0  0  0  0  0  0
   -6.2529    5.3918  -25.0709 H   0  0  0  0  0  0  0  0  0  0  0  0
   -5.6726    2.6230  -23.8986 H   0  0  0  0  0  0  0  0  0  0  0  0
   -6.6108    2.9940  -25.3682 H   0  0  0  0  0  0  0  0  0  0  0  0
   -8.2860    4.0683  -24.0307 H   0  0  0  0  0  0  0  0  0  0  0  0
   -9.0657    2.3396  -22.5108 H   0  0  0  0  0  0  0  0  0  0  0  0
   -7.5405    1.4896  -22.7914 H   0  0  0  0  0  0  0  0  0  0  0  0
   -9.5526    2.1897  -25.0027 H   0  0  0  0  0  0  0  0  0  0  0  0
   -8.0877    1.2142  -25.1895 H   0  0  0  0  0  0  0  0  0  0  0  0
  -10.8706    0.4118  -23.6503 C   0  0  0  0  0  0  0  0  0  0  0  0
  -11.4474    1.4910  -23.5535 O   0  0  0  0  0  0  0  0  0  0  0  0
  -11.4938   -0.8648  -23.1572 C   0  0  0  0  0  0  0  0  0  0  0  0
  -12.8825   -0.9366  -23.0861 C   0  0  0  0  0  0  0  0  0  0  0  0
  -13.4915   -1.9671  -22.3994 C   0  0  0  0  0  0  0  0  0  0  0  0
  -12.6872   -2.9172  -21.7717 C   0  0  0  0  0  0  0  0  0  0  0  0
  -13.4824   -4.1002  -20.7736 Cl  0  0  0  0  0  0  0  0  0  0  0  0
  -11.3063   -2.9058  -21.8957 C   0  0  0  0  0  0  0  0  0  0  0  0
  -10.6881   -1.8877  -22.6387 C   0  0  0  0  0  0  0  0  0  0  0  0
  -10.7305   -3.6481  -21.3526 H   0  0  0  0  0  0  0  0  0  0  0  0
  -14.5690   -2.0070  -22.2772 H   0  0  0  0  0  0  0  0  0  0  0  0
  -13.4552   -0.1314  -23.5293 H   0  0  0  0  0  0  0  0  0  0  0  0
   -7.8224   -0.7258  -24.1241 H   0  0  0  0  0  0  0  0  0  0  0  0
   -9.1425   -1.6215  -24.9101 H   0  0  0  0  0  0  0  0  0  0  0  0
   -6.2355   -2.3804  -22.6796 H   0  0  0  0  0  0  0  0  0  0  0  0
   -6.6250   -3.3642  -21.2605 H   0  0  0  0  0  0  0  0  0  0  0  0
   -8.8721   -3.6627  -21.9106 H   0  0  0  0  0  0  0  0  0  0  0  0
   -7.6032   -4.7714  -23.7102 H   0  0  0  0  0  0  0  0  0  0  0  0
   -7.4854   -3.2594  -24.6165 H   0  0  0  0  0  0  0  0  0  0  0  0
   -9.0567   -4.0473  -24.4191 H   0  0  0  0  0  0  0  0  0  0  0  0
  1  2  1  0
  2  3  1  0
  3  4  1  0
  4  5  1  0
  5  6  2  0
  6  7  1  0
  7  8  2  0
  8  9  1  0
  9 10  2  0
 10 11  1  0
 11 12  2  0
 12 13  1  0
 13 14  2  0
 13 15  1  0
 12 16  1  0
 11 17  1  0
 10 18  1  0
  8 19  1  0
  6 20  1  0
  4 21  1  0
 21 22  2  0
 21 23  1  0
 23 24  1  6
 24 25  1  0
 25 26  1  0
 26 27  1  0
 27 28  1  0
 28 29  1  0
 29 30  1  0
 30 31  1  0
 31 32  1  0
 32 33  1  0
 33 34  1  0
 33 35  1  0
 32 36  1  0
 32 37  1  0
 30 38  1  0
 30 39  1  0
 29 40  1  0
 29 41  1  0
 28 42  1  0
 27 43  1  0
 27 44  1  0
 26 45  1  0
 26 46  1  0
 25 47  1  0
 47 48  2  0
 47 49  1  0
 49 50  2  0
 50 51  1  0
 51 52  2  0
 52 53  1  0
 52 54  1  0
 54 55  2  0
 54 56  1  0
 51 57  1  0
 50 58  1  0
 24 59  1  0
 24 60  1  0
  3 61  1  0
  3 62  1  0
  2 63  1  1
  1 64  1  0
  1 65  1  0
  1 66  1  0
 23  2  1  0
 33 28  1  0
 55 49  1  0
 14  5  1  0
 55 23  1  0
 14  9  1  0
M  CHG  1  28   1
M  END
>  <cnnaffinities>  (74) 
[6.29674]

>  <score>  (74) 
6.29674

>  <index>  (74) 
76

>  <Smiles>  (74) 
C([C@]1(C(N(c2c(nc(c3c(c(c(c(c23)[H])[H])[H])[H])[H])[H])C(=O)[C@]21C(N(C(C([N+]1(C(C(OC(C1([H])[H])([H])[H])([H])[H])([H])[H])[H])([H])[H])([H])[H])C(=O)c1c(c(c(Cl)c(c21)[H])[H])[H])([H])[H])([H])[H])[H])([H])([H])[H]

>  <h>  (74) 
<NA>

>  <Training>  (74) 
True

>  <Success>  (74) 
True

>  <enamine_searched>  (74) 
False

>  <enamine_id>  (74) 
nan

$$$$

     RDKit          3D

 55 60  0  0  0  0  0  0  0  0999 V2000
  -10.4832   -1.1223  -23.3306 C   0  0  0  0  0  0  0  0  0  0  0  0
   -9.0314   -1.4413  -22.9843 C   0  0  1  0  0  0  0  0  0  0  0  0
   -8.4426   -0.4980  -21.9203 C   0  0  0  0  0  0  0  0  0  0  0  0
   -7.4239   -1.3045  -21.2729 N   0  0  0  0  0  0  0  0  0  0  0  0
   -6.6026   -0.8114  -20.2285 C   0  0  0  0  0  0  0  0  0  0  0  0
   -6.9272   -1.0368  -18.9153 C   0  0  0  0  0  0  0  0  0  0  0  0
   -6.2585   -0.4930  -17.8694 N   0  0  0  0  0  0  0  0  0  0  0  0
   -5.2226    0.2621  -18.1286 C   0  0  0  0  0  0  0  0  0  0  0  0
   -4.7604    0.5526  -19.4401 C   0  0  0  0  0  0  0  0  0  0  0  0
   -3.6157    1.3613  -19.6656 C   0  0  0  0  0  0  0  0  0  0  0  0
   -3.2075    1.6242  -20.9443 C   0  0  0  0  0  0  0  0  0  0  0  0
   -3.9142    1.0846  -22.0434 C   0  0  0  0  0  0  0  0  0  0  0  0
   -5.0188    0.2907  -21.8486 C   0  0  0  0  0  0  0  0  0  0  0  0
   -5.4710    0.0090  -20.5324 C   0  0  0  0  0  0  0  0  0  0  0  0
   -5.5530   -0.1382  -22.6904 H   0  0  0  0  0  0  0  0  0  0  0  0
   -3.5750    1.2930  -23.0542 H   0  0  0  0  0  0  0  0  0  0  0  0
   -2.3337    2.2459  -21.1238 H   0  0  0  0  0  0  0  0  0  0  0  0
   -3.0818    1.7641  -18.8083 H   0  0  0  0  0  0  0  0  0  0  0  0
   -4.6898    0.6822  -17.2744 H   0  0  0  0  0  0  0  0  0  0  0  0
   -7.7724   -1.6676  -18.6484 H   0  0  0  0  0  0  0  0  0  0  0  0
   -7.5489   -2.6551  -21.5130 C   0  0  0  0  0  0  0  0  0  0  0  0
   -6.7834   -3.4951  -21.0936 O   0  0  0  0  0  0  0  0  0  0  0  0
   -8.7684   -2.8884  -22.4234 C   0  0  1  0  0  0  0  0  0  0  0  0
   -9.9492   -3.3816  -21.5494 C   0  0  0  0  0  0  0  0  0  0  0  0
  -11.0852   -3.8455  -22.3357 N   0  0  0  0  0  0  0  0  0  0  0  0
  -12.4474   -3.8033  -21.8204 C   0  0  0  0  0  0  0  0  0  0  0  0
  -13.2943   -2.6970  -22.3580 C   0  0  0  0  0  0  0  0  0  0  0  0
  -13.9816   -2.7496  -23.5195 C   0  0  0  0  0  0  0  0  0  0  0  0
  -14.7334   -1.6162  -23.6268 O   0  0  0  0  0  0  0  0  0  0  0  0
  -14.4737   -0.9474  -22.4879 C   0  0  0  0  0  0  0  0  0  0  0  0
  -13.6346   -1.5258  -21.6930 N   0  0  0  0  0  0  0  0  0  0  0  0
  -15.0096   -0.0165  -22.3547 H   0  0  0  0  0  0  0  0  0  0  0  0
  -14.0486   -3.4824  -24.3077 H   0  0  0  0  0  0  0  0  0  0  0  0
  -12.4523   -3.8273  -20.7306 H   0  0  0  0  0  0  0  0  0  0  0  0
  -12.9190   -4.7046  -22.2038 H   0  0  0  0  0  0  0  0  0  0  0  0
  -10.9161   -4.5745  -23.4831 C   0  0  0  0  0  0  0  0  0  0  0  0
  -11.8615   -5.0568  -24.0949 O   0  0  0  0  0  0  0  0  0  0  0  0
   -9.5078   -4.7585  -23.9502 C   0  0  0  0  0  0  0  0  0  0  0  0
   -9.2568   -5.7451  -24.9052 C   0  0  0  0  0  0  0  0  0  0  0  0
   -7.9839   -5.9050  -25.4231 C   0  0  0  0  0  0  0  0  0  0  0  0
   -6.9771   -5.0441  -24.9990 C   0  0  0  0  0  0  0  0  0  0  0  0
   -5.7385   -5.1877  -25.5036 F   0  0  0  0  0  0  0  0  0  0  0  0
   -7.1987   -4.0841  -24.0316 C   0  0  0  0  0  0  0  0  0  0  0  0
   -8.4780   -3.9375  -23.4772 C   0  0  0  0  0  0  0  0  0  0  0  0
   -6.3551   -3.5106  -23.6718 H   0  0  0  0  0  0  0  0  0  0  0  0
   -7.7627   -6.6832  -26.1427 H   0  0  0  0  0  0  0  0  0  0  0  0
  -10.0857   -6.3742  -25.2302 H   0  0  0  0  0  0  0  0  0  0  0  0
  -10.2398   -2.5291  -20.9292 H   0  0  0  0  0  0  0  0  0  0  0  0
   -9.5976   -4.1866  -20.8965 H   0  0  0  0  0  0  0  0  0  0  0  0
   -9.2099   -0.1642  -21.2046 H   0  0  0  0  0  0  0  0  0  0  0  0
   -8.0042    0.4054  -22.3529 H   0  0  0  0  0  0  0  0  0  0  0  0
   -8.4196   -1.3663  -23.8929 H   0  0  0  0  0  0  0  0  0  0  0  0
  -10.5846   -0.1626  -23.8420 H   0  0  0  0  0  0  0  0  0  0  0  0
  -10.9057   -1.8994  -23.9727 H   0  0  0  0  0  0  0  0  0  0  0  0
  -11.1053   -1.0780  -22.4323 H   0  0  0  0  0  0  0  0  0  0  0  0
  1  2  1  0
  2  3  1  0
  3  4  1  0
  4  5  1  0
  5  6  2  0
  6  7  1  0
  7  8  2  0
  8  9  1  0
  9 10  2  0
 10 11  1  0
 11 12  2  0
 12 13  1  0
 13 14  2  0
 13 15  1  0
 12 16  1  0
 11 17  1  0
 10 18  1  0
  8 19  1  0
  6 20  1  0
  4 21  1  0
 21 22  2  0
 21 23  1  0
 23 24  1  1
 24 25  1  0
 25 26  1  0
 26 27  1  0
 27 28  2  0
 28 29  1  0
 29 30  1  0
 30 31  2  0
 30 32  1  0
 28 33  1  0
 26 34  1  0
 26 35  1  0
 25 36  1  0
 36 37  2  0
 36 38  1  0
 38 39  2  0
 39 40  1  0
 40 41  2  0
 41 42  1  0
 41 43  1  0
 43 44  2  0
 43 45  1  0
 40 46  1  0
 39 47  1  0
 24 48  1  0
 24 49  1  0
  3 50  1  0
  3 51  1  0
  2 52  1  6
  1 53  1  0
  1 54  1  0
  1 55  1  0
 23  2  1  0
 31 27  1  0
 44 38  1  0
 14  5  1  0
 44 23  1  0
 14  9  1  0
M  END
>  <cnnaffinities>  (75) 
[6.63447]

>  <score>  (75) 
6.63447

>  <index>  (75) 
77

>  <Smiles>  (75) 
C([C@]1(C(N(c2c(nc(c3c(c(c(c(c23)[H])[H])[H])[H])[H])[H])C(=O)[C@]21C(N(C(c1c(oc(n1)[H])[H])([H])[H])C(=O)c1c(c(c(F)c(c21)[H])[H])[H])([H])[H])([H])[H])[H])([H])([H])[H]

>  <h>  (75) 
<NA>

>  <Training>  (75) 
True

>  <Success>  (75) 
True

>  <enamine_searched>  (75) 
False

>  <enamine_id>  (75) 
nan

$$$$

     RDKit          3D

 56 60  0  0  0  0  0  0  0  0999 V2000
  -14.5138   -1.5507  -23.8434 C   0  0  0  0  0  0  0  0  0  0  0  0
  -13.7375   -2.6797  -23.3916 N   0  0  0  0  0  0  0  0  0  0  0  0
  -13.3432   -2.7427  -22.0982 C   0  0  0  0  0  0  0  0  0  0  0  0
  -13.7073   -1.9283  -21.2652 O   0  0  0  0  0  0  0  0  0  0  0  0
  -12.4369   -3.9199  -21.7583 C   0  0  0  0  0  0  0  0  0  0  0  0
  -11.1056   -3.8370  -22.3344 N   0  0  0  0  0  0  0  0  0  0  0  0
   -9.9752   -3.3576  -21.5384 C   0  0  0  0  0  0  0  0  0  0  0  0
   -8.7922   -2.8739  -22.4087 C   0  0  2  0  0  0  0  0  0  0  0  0
   -7.5562   -2.6537  -21.5261 C   0  0  0  0  0  0  0  0  0  0  0  0
   -6.7618   -3.4939  -21.1584 O   0  0  0  0  0  0  0  0  0  0  0  0
   -7.4298   -1.3098  -21.2623 N   0  0  0  0  0  0  0  0  0  0  0  0
   -6.5987   -0.8236  -20.2261 C   0  0  0  0  0  0  0  0  0  0  0  0
   -6.9219   -1.0454  -18.9114 C   0  0  0  0  0  0  0  0  0  0  0  0
   -6.2609   -0.4939  -17.8649 N   0  0  0  0  0  0  0  0  0  0  0  0
   -5.2267    0.2614  -18.1292 C   0  0  0  0  0  0  0  0  0  0  0  0
   -4.7622    0.5441  -19.4424 C   0  0  0  0  0  0  0  0  0  0  0  0
   -3.6199    1.3524  -19.6686 C   0  0  0  0  0  0  0  0  0  0  0  0
   -3.2105    1.6171  -20.9445 C   0  0  0  0  0  0  0  0  0  0  0  0
   -3.9150    1.0796  -22.0452 C   0  0  0  0  0  0  0  0  0  0  0  0
   -5.0189    0.2836  -21.8514 C   0  0  0  0  0  0  0  0  0  0  0  0
   -5.4701   -0.0012  -20.5350 C   0  0  0  0  0  0  0  0  0  0  0  0
   -5.5462   -0.1402  -22.7002 H   0  0  0  0  0  0  0  0  0  0  0  0
   -3.5765    1.2960  -23.0533 H   0  0  0  0  0  0  0  0  0  0  0  0
   -2.3429    2.2470  -21.1209 H   0  0  0  0  0  0  0  0  0  0  0  0
   -3.0924    1.7570  -18.8090 H   0  0  0  0  0  0  0  0  0  0  0  0
   -4.6904    0.6817  -17.2793 H   0  0  0  0  0  0  0  0  0  0  0  0
   -7.7667   -1.6788  -18.6525 H   0  0  0  0  0  0  0  0  0  0  0  0
   -8.4335   -0.4887  -21.9095 C   0  0  0  0  0  0  0  0  0  0  0  0
   -9.0201   -1.4267  -22.9765 C   0  0  2  0  0  0  0  0  0  0  0  0
  -10.4608   -1.0987  -23.3388 C   0  0  0  0  0  0  0  0  0  0  0  0
  -11.0874   -1.1037  -22.4409 H   0  0  0  0  0  0  0  0  0  0  0  0
  -10.5541   -0.1185  -23.8126 H   0  0  0  0  0  0  0  0  0  0  0  0
  -10.8518   -1.8570  -24.0216 H   0  0  0  0  0  0  0  0  0  0  0  0
   -8.3893   -1.3658  -23.8750 H   0  0  0  0  0  0  0  0  0  0  0  0
   -7.9713    0.4043  -22.3431 H   0  0  0  0  0  0  0  0  0  0  0  0
   -9.2036   -0.1540  -21.1939 H   0  0  0  0  0  0  0  0  0  0  0  0
   -8.5205   -3.9140  -23.4626 C   0  0  0  0  0  0  0  0  0  0  0  0
   -7.2407   -4.0724  -24.0001 C   0  0  0  0  0  0  0  0  0  0  0  0
   -7.0179   -5.0285  -24.9734 C   0  0  0  0  0  0  0  0  0  0  0  0
   -5.4285   -5.1670  -25.6739 Cl  0  0  0  0  0  0  0  0  0  0  0  0
   -8.0292   -5.8902  -25.3999 C   0  0  0  0  0  0  0  0  0  0  0  0
   -9.3025   -5.7169  -24.8920 C   0  0  0  0  0  0  0  0  0  0  0  0
   -9.5494   -4.7143  -23.9588 C   0  0  0  0  0  0  0  0  0  0  0  0
  -10.9438   -4.4884  -23.5176 C   0  0  0  0  0  0  0  0  0  0  0  0
  -11.9087   -4.8671  -24.1880 O   0  0  0  0  0  0  0  0  0  0  0  0
  -10.1273   -6.3518  -25.2020 H   0  0  0  0  0  0  0  0  0  0  0  0
   -7.8197   -6.6662  -26.1280 H   0  0  0  0  0  0  0  0  0  0  0  0
   -6.4073   -3.4824  -23.6409 H   0  0  0  0  0  0  0  0  0  0  0  0
   -9.6429   -4.1581  -20.8690 H   0  0  0  0  0  0  0  0  0  0  0  0
  -10.2843   -2.4989  -20.9353 H   0  0  0  0  0  0  0  0  0  0  0  0
  -12.9170   -4.7716  -22.2399 H   0  0  0  0  0  0  0  0  0  0  0  0
  -12.3820   -4.0841  -20.6796 H   0  0  0  0  0  0  0  0  0  0  0  0
  -13.3990   -3.3762  -24.0415 H   0  0  0  0  0  0  0  0  0  0  0  0
  -13.9066   -0.6379  -23.8490 H   0  0  0  0  0  0  0  0  0  0  0  0
  -14.8727   -1.7638  -24.8503 H   0  0  0  0  0  0  0  0  0  0  0  0
  -15.3596   -1.3929  -23.1700 H   0  0  0  0  0  0  0  0  0  0  0  0
  1  2  1  0
  2  3  1  0
  3  4  2  0
  3  5  1  0
  5  6  1  0
  6  7  1  0
  8  7  1  1
  8  9  1  0
  9 10  2  0
  9 11  1  0
 11 12  1  0
 12 13  2  0
 13 14  1  0
 14 15  2  0
 15 16  1  0
 16 17  2  0
 17 18  1  0
 18 19  2  0
 19 20  1  0
 20 21  2  0
 20 22  1  0
 19 23  1  0
 18 24  1  0
 17 25  1  0
 15 26  1  0
 13 27  1  0
 11 28  1  0
 28 29  1  0
 29 30  1  0
 30 31  1  0
 30 32  1  0
 30 33  1  0
 29 34  1  6
 28 35  1  0
 28 36  1  0
  8 37  1  0
 37 38  2  0
 38 39  1  0
 39 40  1  0
 39 41  2  0
 41 42  1  0
 42 43  2  0
 43 44  1  0
 44 45  2  0
 42 46  1  0
 41 47  1  0
 38 48  1  0
  7 49  1  0
  7 50  1  0
  5 51  1  0
  5 52  1  0
  2 53  1  0
  1 54  1  0
  1 55  1  0
  1 56  1  0
 44  6  1  0
 29  8  1  0
 43 37  1  0
 21 12  1  0
 21 16  1  0
M  END
>  <cnnaffinities>  (76) 
[6.49828]

>  <score>  (76) 
6.49828

>  <index>  (76) 
78

>  <Smiles>  (76) 
C(N(C(=O)C(N1C([C@@]2(C(=O)N(c3c(nc(c4c(c(c(c(c34)[H])[H])[H])[H])[H])[H])C([C@@]2(C([H])([H])[H])[H])([H])[H])c2c(c(Cl)c(c(c2C1=O)[H])[H])[H])([H])[H])([H])[H])[H])([H])([H])[H]

>  <h>  (76) 
<NA>

>  <Training>  (76) 
True

>  <Success>  (76) 
True

>  <enamine_searched>  (76) 
False

>  <enamine_id>  (76) 
nan

$$$$

     RDKit          3D

 45 49  0  0  0  0  0  0  0  0999 V2000
  -10.5336   -2.6256  -22.4529 C   0  0  0  0  0  0  0  0  0  0  0  0
   -9.1314   -2.3892  -22.1780 N   0  0  0  0  0  0  0  0  0  0  0  0
   -8.6929   -1.3067  -21.4689 C   0  0  0  0  0  0  0  0  0  0  0  0
   -9.3446   -0.3709  -21.0580 O   0  0  0  0  0  0  0  0  0  0  0  0
   -7.3105   -1.4923  -21.2930 N   0  0  0  0  0  0  0  0  0  0  0  0
   -6.5916   -0.8514  -20.2518 C   0  0  0  0  0  0  0  0  0  0  0  0
   -6.9614   -1.0325  -18.9408 C   0  0  0  0  0  0  0  0  0  0  0  0
   -6.2972   -0.5045  -17.8854 N   0  0  0  0  0  0  0  0  0  0  0  0
   -5.2382    0.2170  -18.1453 C   0  0  0  0  0  0  0  0  0  0  0  0
   -4.7769    0.5056  -19.4563 C   0  0  0  0  0  0  0  0  0  0  0  0
   -3.6459    1.3276  -19.6653 C   0  0  0  0  0  0  0  0  0  0  0  0
   -3.2492    1.6392  -20.9331 C   0  0  0  0  0  0  0  0  0  0  0  0
   -3.9597    1.1422  -22.0480 C   0  0  0  0  0  0  0  0  0  0  0  0
   -5.0514    0.3299  -21.8732 C   0  0  0  0  0  0  0  0  0  0  0  0
   -5.4769   -0.0187  -20.5591 C   0  0  0  0  0  0  0  0  0  0  0  0
   -5.5922   -0.0452  -22.7374 H   0  0  0  0  0  0  0  0  0  0  0  0
   -3.6416    1.4179  -23.0487 H   0  0  0  0  0  0  0  0  0  0  0  0
   -2.3952    2.2886  -21.0885 H   0  0  0  0  0  0  0  0  0  0  0  0
   -3.1327    1.7096  -18.7893 H   0  0  0  0  0  0  0  0  0  0  0  0
   -4.6852    0.6258  -17.3002 H   0  0  0  0  0  0  0  0  0  0  0  0
   -7.8208   -1.6507  -18.6905 H   0  0  0  0  0  0  0  0  0  0  0  0
   -6.8314   -2.5654  -22.0460 C   0  0  0  0  0  0  0  0  0  0  0  0
   -5.6784   -2.9129  -22.1473 O   0  0  0  0  0  0  0  0  0  0  0  0
   -8.0472   -3.1626  -22.7343 C   0  0  0  0  0  0  0  0  0  0  0  0
   -7.9537   -3.2357  -24.2772 C   0  0  0  0  0  0  0  0  0  0  0  0
   -8.0695   -4.7163  -24.2290 N   0  0  0  0  0  0  0  0  0  0  0  0
   -9.3865   -5.3071  -25.1030 S   0  0  0  0  0  0  0  0  0  0  0  0
   -9.1081   -5.0353  -26.4982 O   0  0  0  0  0  0  0  0  0  0  0  0
  -10.6533   -4.8660  -24.5339 O   0  0  0  0  0  0  0  0  0  0  0  0
   -9.1794   -7.0303  -24.7932 C   0  0  0  0  0  0  0  0  0  0  0  0
   -9.7637   -7.9873  -25.7968 C   0  0  0  0  0  0  0  0  0  0  0  0
   -8.2911   -7.7643  -25.7444 C   0  0  0  0  0  0  0  0  0  0  0  0
   -7.8319   -7.1895  -26.5394 H   0  0  0  0  0  0  0  0  0  0  0  0
   -7.6638   -8.5269  -25.3162 H   0  0  0  0  0  0  0  0  0  0  0  0
  -10.1793   -8.9276  -25.4430 H   0  0  0  0  0  0  0  0  0  0  0  0
  -10.3151   -7.5065  -26.5970 H   0  0  0  0  0  0  0  0  0  0  0  0
   -9.1719   -7.2705  -23.7339 H   0  0  0  0  0  0  0  0  0  0  0  0
   -8.1270   -4.7074  -22.7431 C   0  0  0  0  0  0  0  0  0  0  0  0
   -7.2191   -5.1561  -22.3377 H   0  0  0  0  0  0  0  0  0  0  0  0
   -9.0132   -5.1434  -22.2732 H   0  0  0  0  0  0  0  0  0  0  0  0
   -8.7808   -2.7438  -24.7987 H   0  0  0  0  0  0  0  0  0  0  0  0
   -6.9881   -2.9366  -24.6834 H   0  0  0  0  0  0  0  0  0  0  0  0
  -11.1164   -1.9392  -21.8343 H   0  0  0  0  0  0  0  0  0  0  0  0
  -10.7541   -2.4456  -23.5106 H   0  0  0  0  0  0  0  0  0  0  0  0
  -10.7827   -3.6604  -22.1990 H   0  0  0  0  0  0  0  0  0  0  0  0
  1  2  1  0
  2  3  1  0
  3  4  2  0
  3  5  1  0
  5  6  1  0
  6  7  2  0
  7  8  1  0
  8  9  2  0
  9 10  1  0
 10 11  2  0
 11 12  1  0
 12 13  2  0
 13 14  1  0
 14 15  2  0
 14 16  1  0
 13 17  1  0
 12 18  1  0
 11 19  1  0
  9 20  1  0
  7 21  1  0
  5 22  1  0
 22 23  2  0
 22 24  1  0
 24 25  1  0
 25 26  1  0
 26 27  1  0
 27 28  2  0
 27 29  2  0
 27 30  1  0
 30 31  1  0
 31 32  1  0
 32 33  1  0
 32 34  1  0
 31 35  1  0
 31 36  1  0
 30 37  1  0
 26 38  1  0
 38 39  1  0
 38 40  1  0
 25 41  1  0
 25 42  1  0
  1 43  1  0
  1 44  1  0
  1 45  1  0
 24  2  1  0
 32 30  1  0
 15  6  1  0
 38 24  1  0
 15 10  1  0
M  END
>  <cnnaffinities>  (77) 
[5.16265, 5.46792, 5.16635, 5.23953, 5.24922, 5.24556, 5.48267, 5.56966, 5.48752, 5.45398, 5.44197, 5.45042, 5.48479, 5.45853, 5.33911]

>  <score>  (77) 
5.16265

>  <index>  (77) 
79

>  <Smiles>  (77) 
C(N1C(=O)N(c2c(nc(c3c(c(c(c(c23)[H])[H])[H])[H])[H])[H])C(=O)C21C(N(S(=O)(=O)C1(C(C1([H])[H])([H])[H])[H])C2([H])[H])([H])[H])([H])([H])[H]

>  <h>  (77) 
<NA>

>  <Training>  (77) 
True

>  <Success>  (77) 
True

>  <enamine_searched>  (77) 
False

>  <enamine_id>  (77) 
nan

$$$$

     RDKit          3D

 60 65  0  0  0  0  0  0  0  0999 V2000
   -7.1291    0.7900  -26.6843 C   0  0  0  0  0  0  0  0  0  0  0  0
   -8.3478    0.0857  -26.3519 N   0  0  0  0  0  0  0  0  0  0  0  0
   -8.3199   -1.2696  -26.2785 C   0  0  0  0  0  0  0  0  0  0  0  0
   -7.2858   -1.8932  -26.4789 O   0  0  0  0  0  0  0  0  0  0  0  0
   -9.6258   -1.9452  -25.9528 C   0  0  0  0  0  0  0  0  0  0  0  0
   -9.9399   -2.0200  -24.5554 N   0  0  0  0  0  0  0  0  0  0  0  0
   -9.4292   -1.4257  -23.3570 C   0  0  0  0  0  0  0  0  0  0  0  0
   -9.2468   -2.3938  -22.2255 C   0  0  2  0  0  0  0  0  0  0  0  0
   -8.9061   -1.5254  -21.0485 C   0  0  0  0  0  0  0  0  0  0  0  0
   -9.3127   -0.3180  -21.0097 O   0  0  0  0  0  0  0  0  0  0  0  0
   -7.3240   -1.4298  -21.2193 N   0  0  0  0  0  0  0  0  0  0  0  0
   -6.5752   -0.7893  -20.2184 C   0  0  0  0  0  0  0  0  0  0  0  0
   -6.9144   -0.9450  -18.8955 C   0  0  0  0  0  0  0  0  0  0  0  0
   -6.2296   -0.4354  -17.8465 N   0  0  0  0  0  0  0  0  0  0  0  0
   -5.1541    0.2695  -18.0972 C   0  0  0  0  0  0  0  0  0  0  0  0
   -4.6932    0.5678  -19.4115 C   0  0  0  0  0  0  0  0  0  0  0  0
   -3.5485    1.3787  -19.6571 C   0  0  0  0  0  0  0  0  0  0  0  0
   -3.1646    1.6706  -20.9380 C   0  0  0  0  0  0  0  0  0  0  0  0
   -3.9041    1.1551  -22.0243 C   0  0  0  0  0  0  0  0  0  0  0  0
   -5.0067    0.3661  -21.8166 C   0  0  0  0  0  0  0  0  0  0  0  0
   -5.4226    0.0385  -20.5031 C   0  0  0  0  0  0  0  0  0  0  0  0
   -5.5890   -0.0149  -22.6491 H   0  0  0  0  0  0  0  0  0  0  0  0
   -3.6174    1.4059  -23.0367 H   0  0  0  0  0  0  0  0  0  0  0  0
   -2.3172    2.3253  -21.1262 H   0  0  0  0  0  0  0  0  0  0  0  0
   -3.0084    1.7891  -18.8100 H   0  0  0  0  0  0  0  0  0  0  0  0
   -4.6250    0.6760  -17.2352 H   0  0  0  0  0  0  0  0  0  0  0  0
   -7.7704   -1.5546  -18.6334 H   0  0  0  0  0  0  0  0  0  0  0  0
   -6.6805   -2.4734  -22.0016 C   0  0  0  0  0  0  0  0  0  0  0  0
   -7.8602   -3.3409  -22.4552 C   0  0  2  0  0  0  0  0  0  0  0  0
   -7.9582   -3.9807  -23.8376 C   0  0  0  0  0  0  0  0  0  0  0  0
   -9.0139   -4.2988  -23.9793 H   0  0  0  0  0  0  0  0  0  0  0  0
   -7.3410   -4.8815  -23.8993 H   0  0  0  0  0  0  0  0  0  0  0  0
   -7.7469   -3.2364  -24.6220 H   0  0  0  0  0  0  0  0  0  0  0  0
   -7.7691   -4.1647  -21.6933 H   0  0  0  0  0  0  0  0  0  0  0  0
   -6.0648   -2.0996  -22.8555 H   0  0  0  0  0  0  0  0  0  0  0  0
   -5.9761   -3.0348  -21.3383 H   0  0  0  0  0  0  0  0  0  0  0  0
  -10.4643   -3.4440  -21.8520 C   0  0  0  0  0  0  0  0  0  0  0  0
  -10.4643   -3.4438  -21.8516 C   0  0  0  0  0  0  0  0  0  0  0  0
  -12.8112   -3.0410  -21.0382 C   0  0  0  0  0  0  0  0  0  0  0  0
  -13.6072   -4.1147  -23.4407 Cl  0  0  0  0  0  0  0  0  0  0  0  0
  -12.9937   -3.0296  -20.9237 C   0  0  0  0  0  0  0  0  0  0  0  0
  -12.8177   -2.7437  -22.4679 C   0  0  0  0  0  0  0  0  0  0  0  0
  -11.3489   -2.5963  -22.8605 C   0  0  0  0  0  0  0  0  0  0  0  0
  -11.0442   -2.7017  -24.2161 C   0  0  0  0  0  0  0  0  0  0  0  0
  -11.5571   -3.3850  -25.0638 O   0  0  0  0  0  0  0  0  0  0  0  0
  -12.9816   -1.7025  -22.7179 H   0  0  0  0  0  0  0  0  0  0  0  0
  -13.9375   -3.7164  -21.0382 H   0  0  0  0  0  0  0  0  0  0  0  0
   -9.0643   -2.1111  -20.0836 H   0  0  0  0  0  0  0  0  0  0  0  0
   -8.4779   -0.9295  -23.6183 H   0  0  0  0  0  0  0  0  0  0  0  0
  -10.1089   -0.6369  -23.0271 H   0  0  0  0  0  0  0  0  0  0  0  0
   -9.9498   -3.0319  -26.9522 C   0  0  0  0  0  0  0  0  0  0  0  0
  -10.6999   -1.7370  -26.9947 C   0  0  0  0  0  0  0  0  0  0  0  0
  -11.7354   -1.7175  -26.6712 H   0  0  0  0  0  0  0  0  0  0  0  0
  -10.4686   -1.0963  -27.8392 H   0  0  0  0  0  0  0  0  0  0  0  0
  -10.4997   -3.9141  -26.6632 H   0  0  0  0  0  0  0  0  0  0  0  0
   -9.1785   -3.2065  -27.6872 H   0  0  0  0  0  0  0  0  0  0  0  0
   -9.2477    0.5343  -26.4794 H   0  0  0  0  0  0  0  0  0  0  0  0
   -6.7694    0.5311  -27.6860 H   0  0  0  0  0  0  0  0  0  0  0  0
   -7.3097    1.8647  -26.6141 H   0  0  0  0  0  0  0  0  0  0  0  0
   -6.3404    0.5089  -25.9804 H   0  0  0  0  0  0  0  0  0  0  0  0
  1  2  1  0
  2  3  1  0
  3  4  2  0
  3  5  1  0
  5  6  1  0
  6  7  1  0
  8  7  1  6
  8  9  1  0
  9 10  2  0
  9 11  1  0
 11 12  1  0
 12 13  2  0
 13 14  1  0
 14 15  2  0
 15 16  1  0
 16 17  2  0
 17 18  1  0
 18 19  2  0
 19 20  1  0
 20 21  2  0
 20 22  1  0
 19 23  1  0
 18 24  1  0
 17 25  1  0
 15 26  1  0
 13 27  1  0
 11 28  1  0
 28 29  1  0
 29 30  1  0
 30 31  1  0
 30 32  1  0
 30 33  1  0
 29 34  1  1
 28 35  1  0
 28 36  1  0
  8 37  1  0
 37 38  2  0
 38 39  1  0
 39 40  1  0
 39 41  2  0
 41 42  1  0
 42 43  2  0
 43 44  1  0
 44 45  2  0
 42 46  1  0
 41 47  1  0
 38 48  1  0
  7 49  1  0
  7 50  1  0
  5 51  1  0
 51 52  1  0
 52 53  1  0
 52 54  1  0
 51 55  1  0
 51 56  1  0
  2 57  1  0
  1 58  1  0
  1 59  1  0
  1 60  1  0
 52  5  1  0
 44  6  1  0
 29  8  1  0
 43 37  1  0
 21 12  1  0
 21 16  1  0
M  END
>  <cnnaffinities>  (78) 
[6.28471]

>  <score>  (78) 
6.28471

>  <index>  (78) 
80

>  <Smiles>  (78) 
C(N(C(=O)C1(N2C([C@@]3(C(=O)N(c4c(nc(c5c(c(c(c(c45)[H])[H])[H])[H])[H])[H])C([C@@]3(C([H])([H])[H])[H])([H])[H])c3c(c(Cl)c(c(c3C2=O)[H])[H])[H])([H])[H])C(C1([H])[H])([H])[H])[H])([H])([H])[H]

>  <h>  (78) 
<NA>

>  <Training>  (78) 
True

>  <Success>  (78) 
True

>  <enamine_searched>  (78) 
False

>  <enamine_id>  (78) 
nan

$$$$

     RDKit          3D

 36 38  0  0  0  0  0  0  0  0999 V2000
   -8.5081    0.7107  -21.4639 O   0  0  0  0  0  0  0  0  0  0  0  0
   -8.3856   -0.4019  -21.9343 C   0  0  0  0  0  0  0  0  0  0  0  0
   -7.4391   -1.4336  -21.2786 C   0  0  0  0  0  0  0  0  0  0  0  0
   -6.5809   -0.8288  -20.1909 C   0  0  0  0  0  0  0  0  0  0  0  0
   -6.8812   -1.0329  -18.8701 C   0  0  0  0  0  0  0  0  0  0  0  0
   -6.2020   -0.5097  -17.8165 N   0  0  0  0  0  0  0  0  0  0  0  0
   -5.1547    0.2305  -18.0737 C   0  0  0  0  0  0  0  0  0  0  0  0
   -4.7198    0.5353  -19.3882 C   0  0  0  0  0  0  0  0  0  0  0  0
   -3.5943    1.3645  -19.6245 C   0  0  0  0  0  0  0  0  0  0  0  0
   -3.2075    1.6584  -20.9038 C   0  0  0  0  0  0  0  0  0  0  0  0
   -3.9332    1.1300  -21.9945 C   0  0  0  0  0  0  0  0  0  0  0  0
   -5.0270    0.3234  -21.7890 C   0  0  0  0  0  0  0  0  0  0  0  0
   -5.4541    0.0017  -20.4764 C   0  0  0  0  0  0  0  0  0  0  0  0
   -5.5771   -0.0671  -22.6378 H   0  0  0  0  0  0  0  0  0  0  0  0
   -3.6233    1.3723  -23.0051 H   0  0  0  0  0  0  0  0  0  0  0  0
   -2.3533    2.3038  -21.0877 H   0  0  0  0  0  0  0  0  0  0  0  0
   -3.0572    1.7752  -18.7730 H   0  0  0  0  0  0  0  0  0  0  0  0
   -4.6017    0.6269  -17.2190 H   0  0  0  0  0  0  0  0  0  0  0  0
   -7.7258   -1.6570  -18.5843 H   0  0  0  0  0  0  0  0  0  0  0  0
   -6.8031   -1.9003  -22.0424 H   0  0  0  0  0  0  0  0  0  0  0  0
   -8.0407   -2.2449  -20.8452 H   0  0  0  0  0  0  0  0  0  0  0  0
   -9.0589   -0.7722  -23.0902 N   0  0  0  0  0  0  0  0  0  0  0  0
  -10.0026    0.1929  -23.6438 C   0  0  0  0  0  0  0  0  0  0  0  0
  -11.3759    0.2113  -23.0262 C   0  0  0  0  0  0  0  0  0  0  0  0
  -12.0184   -0.7924  -22.4183 C   0  0  0  0  0  0  0  0  0  0  0  0
  -11.5688   -2.1756  -22.1559 C   0  0  0  0  0  0  0  0  0  0  0  0
  -10.4458   -2.7811  -22.5510 C   0  0  0  0  0  0  0  0  0  0  0  0
   -9.3673   -2.1605  -23.4040 C   0  0  0  0  0  0  0  0  0  0  0  0
   -8.4500   -2.7534  -23.3597 H   0  0  0  0  0  0  0  0  0  0  0  0
   -9.6837   -2.1745  -24.4534 H   0  0  0  0  0  0  0  0  0  0  0  0
  -10.2835   -3.8162  -22.2473 H   0  0  0  0  0  0  0  0  0  0  0  0
  -12.2764   -2.7638  -21.5742 H   0  0  0  0  0  0  0  0  0  0  0  0
  -13.0202   -0.5921  -22.0412 H   0  0  0  0  0  0  0  0  0  0  0  0
  -11.8737    1.1796  -23.1075 H   0  0  0  0  0  0  0  0  0  0  0  0
  -10.1108   -0.0419  -24.7093 H   0  0  0  0  0  0  0  0  0  0  0  0
   -9.5576    1.1902  -23.5953 H   0  0  0  0  0  0  0  0  0  0  0  0
  1  2  2  0
  2  3  1  0
  3  4  1  0
  4  5  2  0
  5  6  1  0
  6  7  2  0
  7  8  1  0
  8  9  2  0
  9 10  1  0
 10 11  2  0
 11 12  1  0
 12 13  2  0
 12 14  1  0
 11 15  1  0
 10 16  1  0
  9 17  1  0
  7 18  1  0
  5 19  1  0
  3 20  1  0
  3 21  1  0
  2 22  1  0
 22 23  1  0
 23 24  1  0
 24 25  2  0
 25 26  1  0
 26 27  2  0
 27 28  1  0
 28 29  1  0
 28 30  1  0
 27 31  1  0
 26 32  1  0
 25 33  1  0
 24 34  1  0
 23 35  1  0
 23 36  1  0
 13  4  1  0
 28 22  1  0
 13  8  1  0
M  END
>  <cnnaffinities>  (79) 
[4.67383, 4.67382, 5.09438, 5.09945]

>  <score>  (79) 
4.67383

>  <index>  (79) 
81

>  <Smiles>  (79) 
O=C(C(c1c(nc(c2c(c(c(c(c12)[H])[H])[H])[H])[H])[H])([H])[H])N1C(C(=C(C(=C(C1([H])[H])[H])[H])[H])[H])([H])[H]

>  <h>  (79) 
<NA>

>  <Training>  (79) 
True

>  <Success>  (79) 
True

>  <enamine_searched>  (79) 
False

>  <enamine_id>  (79) 
nan

$$$$

     RDKit          3D

 54 57  0  0  0  0  0  0  0  0999 V2000
   -9.4603    1.4559  -24.5735 C   0  0  0  0  0  0  0  0  0  0  0  0
   -8.9047    0.1661  -24.4488 O   0  0  0  0  0  0  0  0  0  0  0  0
   -7.6187   -0.0613  -24.8486 C   0  0  0  0  0  0  0  0  0  0  0  0
   -6.7882    0.9273  -25.3876 C   0  0  0  0  0  0  0  0  0  0  0  0
   -5.4818    0.6107  -25.7607 C   0  0  0  0  0  0  0  0  0  0  0  0
   -4.9933   -0.6806  -25.6104 C   0  0  0  0  0  0  0  0  0  0  0  0
   -5.8269   -1.6460  -25.0606 C   0  0  0  0  0  0  0  0  0  0  0  0
   -7.1227   -1.3647  -24.6504 C   0  0  0  0  0  0  0  0  0  0  0  0
   -7.9878   -2.4730  -24.0494 C   0  0  1  0  0  0  0  0  0  0  0  0
   -8.5379   -3.3737  -25.1589 C   0  0  0  0  0  0  0  0  0  0  0  0
   -9.2382   -4.6034  -24.5948 C   0  0  1  0  0  0  0  0  0  0  0  0
   -9.8866   -5.4462  -25.6944 C   0  0  0  0  0  0  0  0  0  0  0  0
  -10.6241   -4.8695  -26.2654 H   0  0  0  0  0  0  0  0  0  0  0  0
   -9.1356   -5.8096  -26.4059 H   0  0  0  0  0  0  0  0  0  0  0  0
  -10.3985   -6.3227  -25.2797 H   0  0  0  0  0  0  0  0  0  0  0  0
   -8.2688   -5.4305  -23.7352 C   0  0  0  0  0  0  0  0  0  0  0  0
   -6.9952   -4.6712  -23.3575 C   0  0  0  0  0  0  0  0  0  0  0  0
   -7.2858   -3.2714  -23.0394 N   0  0  0  0  0  0  0  0  0  0  0  0
   -6.7361   -2.7286  -21.8879 C   0  0  0  0  0  0  0  0  0  0  0  0
   -5.7964   -3.2553  -21.3189 O   0  0  0  0  0  0  0  0  0  0  0  0
   -7.3996   -1.4635  -21.2869 C   0  0  0  0  0  0  0  0  0  0  0  0
   -6.5753   -0.8309  -20.1902 C   0  0  0  0  0  0  0  0  0  0  0  0
   -6.8732   -1.0411  -18.8701 C   0  0  0  0  0  0  0  0  0  0  0  0
   -6.1964   -0.5139  -17.8153 N   0  0  0  0  0  0  0  0  0  0  0  0
   -5.1548    0.2318  -18.0756 C   0  0  0  0  0  0  0  0  0  0  0  0
   -4.7143    0.5330  -19.3893 C   0  0  0  0  0  0  0  0  0  0  0  0
   -3.5890    1.3584  -19.6269 C   0  0  0  0  0  0  0  0  0  0  0  0
   -3.1931    1.6374  -20.9035 C   0  0  0  0  0  0  0  0  0  0  0  0
   -3.9115    1.0924  -21.9937 C   0  0  0  0  0  0  0  0  0  0  0  0
   -5.0054    0.2879  -21.7984 C   0  0  0  0  0  0  0  0  0  0  0  0
   -5.4431   -0.0113  -20.4829 C   0  0  0  0  0  0  0  0  0  0  0  0
   -5.5328   -0.1191  -22.6628 H   0  0  0  0  0  0  0  0  0  0  0  0
   -3.5909    1.3214  -23.0046 H   0  0  0  0  0  0  0  0  0  0  0  0
   -2.3345    2.2790  -21.0901 H   0  0  0  0  0  0  0  0  0  0  0  0
   -3.0557    1.7750  -18.7734 H   0  0  0  0  0  0  0  0  0  0  0  0
   -4.6017    0.6292  -17.2185 H   0  0  0  0  0  0  0  0  0  0  0  0
   -7.7180   -1.6691  -18.5857 H   0  0  0  0  0  0  0  0  0  0  0  0
   -7.6499   -0.7192  -22.0535 H   0  0  0  0  0  0  0  0  0  0  0  0
   -8.3625   -1.7789  -20.8575 H   0  0  0  0  0  0  0  0  0  0  0  0
   -6.2584   -4.7543  -24.1698 H   0  0  0  0  0  0  0  0  0  0  0  0
   -6.5263   -5.1219  -22.4837 H   0  0  0  0  0  0  0  0  0  0  0  0
   -7.9807   -6.3456  -24.2627 H   0  0  0  0  0  0  0  0  0  0  0  0
   -8.7839   -5.7581  -22.8288 H   0  0  0  0  0  0  0  0  0  0  0  0
  -10.0439   -4.2464  -23.9427 H   0  0  0  0  0  0  0  0  0  0  0  0
   -9.2426   -2.7848  -25.7515 H   0  0  0  0  0  0  0  0  0  0  0  0
   -7.7481   -3.6689  -25.8613 H   0  0  0  0  0  0  0  0  0  0  0  0
   -8.8453   -2.0019  -23.5634 H   0  0  0  0  0  0  0  0  0  0  0  0
   -5.4416   -2.6541  -24.9565 H   0  0  0  0  0  0  0  0  0  0  0  0
   -3.9794   -0.9382  -25.9103 H   0  0  0  0  0  0  0  0  0  0  0  0
   -4.8372    1.3780  -26.1764 H   0  0  0  0  0  0  0  0  0  0  0  0
   -7.1416    1.9464  -25.5208 H   0  0  0  0  0  0  0  0  0  0  0  0
   -9.5006    1.8093  -25.6120 H   0  0  0  0  0  0  0  0  0  0  0  0
   -8.9507    2.2172  -23.9733 H   0  0  0  0  0  0  0  0  0  0  0  0
  -10.4693    1.3621  -24.1806 H   0  0  0  0  0  0  0  0  0  0  0  0
  1  2  1  0
  2  3  1  0
  3  4  2  0
  4  5  1  0
  5  6  2  0
  6  7  1  0
  7  8  2  0
  8  9  1  0
  9 10  1  0
 10 11  1  0
 11 12  1  0
 12 13  1  0
 12 14  1  0
 12 15  1  0
 11 16  1  0
 16 17  1  0
 17 18  1  0
 18 19  1  0
 19 20  2  0
 19 21  1  0
 21 22  1  0
 22 23  2  0
 23 24  1  0
 24 25  2  0
 25 26  1  0
 26 27  2  0
 27 28  1  0
 28 29  2  0
 29 30  1  0
 30 31  2  0
 30 32  1  0
 29 33  1  0
 28 34  1  0
 27 35  1  0
 25 36  1  0
 23 37  1  0
 21 38  1  0
 21 39  1  0
 17 40  1  0
 17 41  1  0
 16 42  1  0
 16 43  1  0
 11 44  1  1
 10 45  1  0
 10 46  1  0
  9 47  1  1
  7 48  1  0
  6 49  1  0
  5 50  1  0
  4 51  1  0
  1 52  1  0
  1 53  1  0
  1 54  1  0
  8  3  1  0
 18  9  1  0
 31 22  1  0
 31 26  1  0
M  END
>  <cnnaffinities>  (80) 
[5.85663, 5.65969]

>  <score>  (80) 
5.85663

>  <index>  (80) 
82

>  <Smiles>  (80) 
C(Oc1c(c(c(c(c1[C@]1(C([C@@](C([H])([H])[H])(C(C(N1C(=O)C(c1c(nc(c2c(c(c(c(c12)[H])[H])[H])[H])[H])[H])([H])[H])([H])[H])([H])[H])[H])([H])[H])[H])[H])[H])[H])[H])([H])([H])[H]

>  <h>  (80) 
<NA>

>  <Training>  (80) 
True

>  <Success>  (80) 
True

>  <enamine_searched>  (80) 
False

>  <enamine_id>  (80) 
nan

$$$$

     RDKit          3D

 46 50  0  0  0  0  0  0  0  0999 V2000
   -5.9416   -4.3732  -26.9195 N   0  0  0  0  0  0  0  0  0  0  0  0
   -5.6744   -2.7463  -26.6757 S   0  0  0  0  0  0  0  0  0  0  0  0
   -4.7300   -2.6427  -25.5779 O   0  0  0  0  0  0  0  0  0  0  0  0
   -5.4062   -2.1885  -27.9874 O   0  0  0  0  0  0  0  0  0  0  0  0
   -7.2296   -2.0970  -26.1230 C   0  0  0  0  0  0  0  0  0  0  0  0
   -8.1593   -1.6861  -27.0785 C   0  0  0  0  0  0  0  0  0  0  0  0
   -9.4081   -1.2763  -26.6567 C   0  0  0  0  0  0  0  0  0  0  0  0
   -9.6831   -1.1583  -25.2970 C   0  0  0  0  0  0  0  0  0  0  0  0
   -8.7501   -1.5709  -24.3347 C   0  0  0  0  0  0  0  0  0  0  0  0
   -7.5198   -2.0694  -24.7676 C   0  0  0  0  0  0  0  0  0  0  0  0
   -6.7947   -2.4583  -24.0528 H   0  0  0  0  0  0  0  0  0  0  0  0
   -9.0900   -1.5625  -22.8504 C   0  0  1  0  0  0  0  0  0  0  0  0
  -10.5929   -1.2927  -22.6918 C   0  0  0  0  0  0  0  0  0  0  0  0
  -11.0283   -0.1943  -23.6475 C   0  0  0  0  0  0  0  0  0  0  0  0
  -10.9153   -0.6746  -24.9799 O   0  0  0  0  0  0  0  0  0  0  0  0
  -12.0768    0.0790  -23.5099 H   0  0  0  0  0  0  0  0  0  0  0  0
  -10.4084    0.7033  -23.5349 H   0  0  0  0  0  0  0  0  0  0  0  0
  -10.8280   -1.0401  -21.6588 H   0  0  0  0  0  0  0  0  0  0  0  0
  -11.1192   -2.2137  -22.9605 H   0  0  0  0  0  0  0  0  0  0  0  0
   -8.6718   -2.8029  -22.1878 N   0  0  0  0  0  0  0  0  0  0  0  0
   -7.4789   -2.6340  -21.5192 C   0  0  0  0  0  0  0  0  0  0  0  0
   -6.6633   -3.4699  -21.2136 O   0  0  0  0  0  0  0  0  0  0  0  0
   -7.3586   -1.2630  -21.2801 N   0  0  0  0  0  0  0  0  0  0  0  0
   -6.5730   -0.7231  -20.2299 C   0  0  0  0  0  0  0  0  0  0  0  0
   -6.9120   -0.9565  -18.9237 C   0  0  0  0  0  0  0  0  0  0  0  0
   -6.2393   -0.4468  -17.8669 N   0  0  0  0  0  0  0  0  0  0  0  0
   -5.1845    0.2870  -18.1153 C   0  0  0  0  0  0  0  0  0  0  0  0
   -4.7227    0.5980  -19.4221 C   0  0  0  0  0  0  0  0  0  0  0  0
   -3.5676    1.3901  -19.6424 C   0  0  0  0  0  0  0  0  0  0  0  0
   -3.1439    1.6397  -20.9180 C   0  0  0  0  0  0  0  0  0  0  0  0
   -3.8424    1.1051  -22.0234 C   0  0  0  0  0  0  0  0  0  0  0  0
   -4.9648    0.3429  -21.8338 C   0  0  0  0  0  0  0  0  0  0  0  0
   -5.4326    0.0772  -20.5209 C   0  0  0  0  0  0  0  0  0  0  0  0
   -5.5098   -0.0646  -22.6801 H   0  0  0  0  0  0  0  0  0  0  0  0
   -3.4822    1.2875  -23.0303 H   0  0  0  0  0  0  0  0  0  0  0  0
   -2.2611    2.2467  -21.0905 H   0  0  0  0  0  0  0  0  0  0  0  0
   -3.0336    1.7787  -18.7805 H   0  0  0  0  0  0  0  0  0  0  0  0
   -4.6311    0.6562  -17.2540 H   0  0  0  0  0  0  0  0  0  0  0  0
   -7.7766   -1.5681  -18.6801 H   0  0  0  0  0  0  0  0  0  0  0  0
   -8.2608   -0.5391  -22.0555 C   0  0  0  0  0  0  0  0  0  0  0  0
   -8.3617    0.6640  -22.0590 O   0  0  0  0  0  0  0  0  0  0  0  0
   -8.7372   -3.6703  -22.7033 H   0  0  0  0  0  0  0  0  0  0  0  0
  -10.2077   -1.0636  -27.3531 H   0  0  0  0  0  0  0  0  0  0  0  0
   -7.9000   -1.6931  -28.1334 H   0  0  0  0  0  0  0  0  0  0  0  0
   -6.1773   -4.8667  -26.0651 H   0  0  0  0  0  0  0  0  0  0  0  0
   -6.6140   -4.5463  -27.6605 H   0  0  0  0  0  0  0  0  0  0  0  0
  1  2  1  0
  2  3  2  0
  2  4  2  0
  2  5  1  0
  5  6  2  0
  6  7  1  0
  7  8  2  0
  8  9  1  0
  9 10  2  0
 10 11  1  0
  9 12  1  0
 12 13  1  0
 13 14  1  0
 14 15  1  0
 14 16  1  0
 14 17  1  0
 13 18  1  0
 13 19  1  0
 12 20  1  1
 20 21  1  0
 21 22  2  0
 21 23  1  0
 23 24  1  0
 24 25  2  0
 25 26  1  0
 26 27  2  0
 27 28  1  0
 28 29  2  0
 29 30  1  0
 30 31  2  0
 31 32  1  0
 32 33  2  0
 32 34  1  0
 31 35  1  0
 30 36  1  0
 29 37  1  0
 27 38  1  0
 25 39  1  0
 23 40  1  0
 40 41  2  0
 20 42  1  0
  7 43  1  0
  6 44  1  0
  1 45  1  0
  1 46  1  0
 10  5  1  0
 40 12  1  0
 15  8  1  0
 33 24  1  0
 33 28  1  0
M  END
>  <cnnaffinities>  (81) 
[5.72438, 5.79419, 5.68047]

>  <score>  (81) 
5.72438

>  <index>  (81) 
83

>  <Smiles>  (81) 
N(S(=O)(=O)c1c(c(c2c(c1[H])[C@@]1(C(C(O2)([H])[H])([H])[H])N(C(=O)N(c2c(nc(c3c(c(c(c(c23)[H])[H])[H])[H])[H])[H])C1=O)[H])[H])[H])([H])[H]

>  <h>  (81) 
<NA>

>  <Training>  (81) 
True

>  <Success>  (81) 
True

>  <enamine_searched>  (81) 
False

>  <enamine_id>  (81) 
nan

$$$$

     RDKit          3D

 63 68  0  0  0  0  0  0  0  0999 V2000
   -8.3112   -4.1578  -23.4972 C   0  0  0  0  0  0  0  0  0  0  0  0
   -8.4873   -2.9573  -22.5756 C   0  0  1  0  0  0  0  0  0  0  0  0
   -7.2777   -2.6934  -21.6720 C   0  0  0  0  0  0  0  0  0  0  0  0
   -7.4069   -1.2892  -21.3482 N   0  0  0  0  0  0  0  0  0  0  0  0
   -6.6496   -0.6798  -20.3132 C   0  0  0  0  0  0  0  0  0  0  0  0
   -6.9894   -0.9153  -19.0058 C   0  0  0  0  0  0  0  0  0  0  0  0
   -6.3287   -0.4160  -17.9333 N   0  0  0  0  0  0  0  0  0  0  0  0
   -5.2631    0.3098  -18.1650 C   0  0  0  0  0  0  0  0  0  0  0  0
   -4.7713    0.6028  -19.4670 C   0  0  0  0  0  0  0  0  0  0  0  0
   -3.6000    1.3822  -19.6590 C   0  0  0  0  0  0  0  0  0  0  0  0
   -3.1359    1.6346  -20.9200 C   0  0  0  0  0  0  0  0  0  0  0  0
   -3.8203    1.1186  -22.0451 C   0  0  0  0  0  0  0  0  0  0  0  0
   -4.9602    0.3703  -21.8834 C   0  0  0  0  0  0  0  0  0  0  0  0
   -5.4742    0.0963  -20.5864 C   0  0  0  0  0  0  0  0  0  0  0  0
   -5.4803   -0.0158  -22.7561 H   0  0  0  0  0  0  0  0  0  0  0  0
   -3.4424    1.3223  -23.0417 H   0  0  0  0  0  0  0  0  0  0  0  0
   -2.2447    2.2373  -21.0663 H   0  0  0  0  0  0  0  0  0  0  0  0
   -3.0910    1.7775  -18.7832 H   0  0  0  0  0  0  0  0  0  0  0  0
   -4.7237    0.6973  -17.2989 H   0  0  0  0  0  0  0  0  0  0  0  0
   -7.8547   -1.5379  -18.7794 H   0  0  0  0  0  0  0  0  0  0  0  0
   -8.2607   -0.5964  -22.1832 C   0  0  0  0  0  0  0  0  0  0  0  0
   -8.4997    0.5859  -22.0822 O   0  0  0  0  0  0  0  0  0  0  0  0
   -8.7853   -1.5765  -23.2600 C   0  0  1  0  0  0  0  0  0  0  0  0
   -7.9614   -1.2932  -24.5469 C   0  0  0  0  0  0  0  0  0  0  0  0
   -8.5464   -1.8225  -25.7757 N   0  0  0  0  0  0  0  0  0  0  0  0
   -7.6785   -2.1997  -26.8845 C   0  0  0  0  0  0  0  0  0  0  0  0
   -7.6252   -3.7290  -27.0931 C   0  0  0  0  0  0  0  0  0  0  0  0
   -6.7794   -4.4229  -26.5574 O   0  0  0  0  0  0  0  0  0  0  0  0
   -8.6054   -4.2071  -27.9002 N   0  0  0  0  0  0  0  0  0  0  0  0
   -8.6163   -5.5889  -28.3289 C   0  0  0  0  0  0  0  0  0  0  0  0
   -7.4870   -5.9147  -29.2028 C   0  0  0  0  0  0  0  0  0  0  0  0
   -6.4919   -5.0134  -29.4261 F   0  0  0  0  0  0  0  0  0  0  0  0
   -7.3754   -6.9551  -30.0591 C   0  0  0  0  0  0  0  0  0  0  0  0
   -7.5129   -7.1342  -30.0070 C   0  0  0  0  0  0  0  0  0  0  0  0
   -6.2925   -7.6605  -29.8847 H   0  0  0  0  0  0  0  0  0  0  0  0
   -8.4696   -8.1905  -29.1608 H   0  0  0  0  0  0  0  0  0  0  0  0
   -6.3204   -6.7459  -30.7041 H   0  0  0  0  0  0  0  0  0  0  0  0
   -8.1516   -6.9007  -31.0982 H   0  0  0  0  0  0  0  0  0  0  0  0
   -8.5819   -6.2445  -27.4393 H   0  0  0  0  0  0  0  0  0  0  0  0
   -9.6076   -5.7670  -28.7882 H   0  0  0  0  0  0  0  0  0  0  0  0
   -9.3851   -3.5986  -28.1082 H   0  0  0  0  0  0  0  0  0  0  0  0
   -8.0445   -1.7193  -27.7968 H   0  0  0  0  0  0  0  0  0  0  0  0
   -6.6697   -1.8429  -26.6713 H   0  0  0  0  0  0  0  0  0  0  0  0
   -9.8836   -1.8293  -26.0155 C   0  0  0  0  0  0  0  0  0  0  0  0
  -10.3439   -2.0943  -27.1306 O   0  0  0  0  0  0  0  0  0  0  0  0
  -10.7668   -1.5612  -24.8493 C   0  0  0  0  0  0  0  0  0  0  0  0
  -12.1372   -1.5574  -25.0893 C   0  0  0  0  0  0  0  0  0  0  0  0
  -13.0362   -1.3493  -24.0656 C   0  0  0  0  0  0  0  0  0  0  0  0
  -12.5236   -1.1664  -22.7875 C   0  0  0  0  0  0  0  0  0  0  0  0
  -13.3978   -0.9751  -21.7879 F   0  0  0  0  0  0  0  0  0  0  0  0
  -11.1686   -1.1981  -22.5106 C   0  0  0  0  0  0  0  0  0  0  0  0
  -10.2592   -1.4006  -23.5556 C   0  0  0  0  0  0  0  0  0  0  0  0
  -10.8248   -1.0760  -21.4884 H   0  0  0  0  0  0  0  0  0  0  0  0
  -14.1088   -1.3426  -24.2291 H   0  0  0  0  0  0  0  0  0  0  0  0
  -12.4559   -1.7434  -26.1070 H   0  0  0  0  0  0  0  0  0  0  0  0
   -6.9648   -1.7389  -24.4460 H   0  0  0  0  0  0  0  0  0  0  0  0
   -7.8337   -0.2040  -24.6208 H   0  0  0  0  0  0  0  0  0  0  0  0
   -6.3317   -2.9057  -22.1960 H   0  0  0  0  0  0  0  0  0  0  0  0
   -7.2807   -3.2871  -20.7558 H   0  0  0  0  0  0  0  0  0  0  0  0
   -9.3523   -3.1435  -21.9204 H   0  0  0  0  0  0  0  0  0  0  0  0
   -9.1784   -4.2798  -24.1530 H   0  0  0  0  0  0  0  0  0  0  0  0
   -7.4223   -4.0602  -24.1316 H   0  0  0  0  0  0  0  0  0  0  0  0
   -8.2064   -5.0750  -22.9073 H   0  0  0  0  0  0  0  0  0  0  0  0
  1  2  1  0
  2  3  1  0
  3  4  1  0
  4  5  1  0
  5  6  2  0
  6  7  1  0
  7  8  2  0
  8  9  1  0
  9 10  2  0
 10 11  1  0
 11 12  2  0
 12 13  1  0
 13 14  2  0
 13 15  1  0
 12 16  1  0
 11 17  1  0
 10 18  1  0
  8 19  1  0
  6 20  1  0
  4 21  1  0
 21 22  2  0
 21 23  1  0
 23 24  1  6
 24 25  1  0
 25 26  1  0
 26 27  1  0
 27 28  2  0
 27 29  1  0
 29 30  1  0
 30 31  1  0
 31 32  1  0
 31 33  1  0
 33 34  1  0
 34 35  1  0
 34 36  1  0
 33 37  1  0
 33 38  1  0
 30 39  1  0
 30 40  1  0
 29 41  1  0
 26 42  1  0
 26 43  1  0
 25 44  1  0
 44 45  2  0
 44 46  1  0
 46 47  2  0
 47 48  1  0
 48 49  2  0
 49 50  1  0
 49 51  1  0
 51 52  2  0
 51 53  1  0
 48 54  1  0
 47 55  1  0
 24 56  1  0
 24 57  1  0
  3 58  1  0
  3 59  1  0
  2 60  1  1
  1 61  1  0
  1 62  1  0
  1 63  1  0
 23  2  1  0
 34 31  1  0
 52 46  1  0
 14  5  1  0
 52 23  1  0
 14  9  1  0
M  END
>  <cnnaffinities>  (82) 
[6.36376]

>  <score>  (82) 
6.36376

>  <index>  (82) 
84

>  <Smiles>  (82) 
C([C@]1(C(N(c2c(nc(c3c(c(c(c(c23)[H])[H])[H])[H])[H])[H])C(=O)[C@]21C(N(C(C(=O)N(C(C1(F)C(C1([H])[H])([H])[H])([H])[H])[H])([H])[H])C(=O)c1c(c(c(F)c(c21)[H])[H])[H])([H])[H])([H])[H])[H])([H])([H])[H]

>  <h>  (82) 
<NA>

>  <Training>  (82) 
True

>  <Success>  (82) 
True

>  <enamine_searched>  (82) 
False

>  <enamine_id>  (82) 
nan

$$$$

     RDKit          3D

 57 62  0  0  0  0  0  0  0  0999 V2000
   -9.2162   -8.4447  -23.7548 C   0  0  0  0  0  0  0  0  0  0  0  0
   -8.4903   -7.3122  -23.2374 N   0  0  0  0  0  0  0  0  0  0  0  0
   -7.2309   -7.1873  -23.7716 C   0  0  0  0  0  0  0  0  0  0  0  0
   -6.8558   -7.8491  -24.7155 O   0  0  0  0  0  0  0  0  0  0  0  0
   -6.3879   -6.0782  -23.1855 C   0  0  0  0  0  0  0  0  0  0  0  0
   -6.8009   -4.8298  -23.7715 N   0  0  0  0  0  0  0  0  0  0  0  0
   -8.0287   -4.2325  -23.2802 C   0  0  0  0  0  0  0  0  0  0  0  0
   -7.8606   -2.7156  -23.1583 C   0  0  2  0  0  0  0  0  0  0  0  0
   -6.8265   -2.4166  -22.0530 C   0  0  0  0  0  0  0  0  0  0  0  0
   -5.7279   -2.9185  -21.9242 O   0  0  0  0  0  0  0  0  0  0  0  0
   -7.3397   -1.4522  -21.2190 N   0  0  0  0  0  0  0  0  0  0  0  0
   -6.5690   -0.8466  -20.2007 C   0  0  0  0  0  0  0  0  0  0  0  0
   -6.9120   -1.0305  -18.8856 C   0  0  0  0  0  0  0  0  0  0  0  0
   -6.2382   -0.4981  -17.8406 N   0  0  0  0  0  0  0  0  0  0  0  0
   -5.1824    0.2304  -18.1039 C   0  0  0  0  0  0  0  0  0  0  0  0
   -4.7315    0.5213  -19.4211 C   0  0  0  0  0  0  0  0  0  0  0  0
   -3.6048    1.3537  -19.6473 C   0  0  0  0  0  0  0  0  0  0  0  0
   -3.2198    1.6638  -20.9212 C   0  0  0  0  0  0  0  0  0  0  0  0
   -3.9435    1.1561  -22.0248 C   0  0  0  0  0  0  0  0  0  0  0  0
   -5.0341    0.3441  -21.8359 C   0  0  0  0  0  0  0  0  0  0  0  0
   -5.4480   -0.0110  -20.5163 C   0  0  0  0  0  0  0  0  0  0  0  0
   -5.5913   -0.0222  -22.6995 H   0  0  0  0  0  0  0  0  0  0  0  0
   -3.6356    1.4208  -23.0325 H   0  0  0  0  0  0  0  0  0  0  0  0
   -2.3658    2.3131  -21.0950 H   0  0  0  0  0  0  0  0  0  0  0  0
   -3.0768    1.7537  -18.7857 H   0  0  0  0  0  0  0  0  0  0  0  0
   -4.6291    0.6354  -17.2547 H   0  0  0  0  0  0  0  0  0  0  0  0
   -7.7596   -1.6681  -18.6327 H   0  0  0  0  0  0  0  0  0  0  0  0
   -8.7152   -1.1121  -21.4928 C   0  0  0  0  0  0  0  0  0  0  0  0
   -9.1173   -1.9954  -22.6617 C   0  0  0  0  0  0  0  0  0  0  0  0
  -10.4760   -2.6441  -22.5957 C   0  0  0  0  0  0  0  0  0  0  0  0
  -10.2087   -1.5580  -23.5968 C   0  0  0  0  0  0  0  0  0  0  0  0
  -10.1167   -1.8507  -24.6384 H   0  0  0  0  0  0  0  0  0  0  0  0
  -10.6533   -0.5753  -23.4514 H   0  0  0  0  0  0  0  0  0  0  0  0
  -10.5766   -3.6654  -22.9475 H   0  0  0  0  0  0  0  0  0  0  0  0
  -11.0956   -2.4191  -21.7316 H   0  0  0  0  0  0  0  0  0  0  0  0
   -9.3392   -1.3386  -20.6350 H   0  0  0  0  0  0  0  0  0  0  0  0
   -8.8127   -0.0483  -21.7312 H   0  0  0  0  0  0  0  0  0  0  0  0
   -7.3116   -2.2126  -24.4877 C   0  0  0  0  0  0  0  0  0  0  0  0
   -7.4411   -0.8631  -24.8253 C   0  0  0  0  0  0  0  0  0  0  0  0
   -6.9091   -0.3980  -26.0147 C   0  0  0  0  0  0  0  0  0  0  0  0
   -7.0876    1.2872  -26.4221 Cl  0  0  0  0  0  0  0  0  0  0  0  0
   -6.2245   -1.2423  -26.8906 C   0  0  0  0  0  0  0  0  0  0  0  0
   -6.0522   -2.5665  -26.5410 C   0  0  0  0  0  0  0  0  0  0  0  0
   -6.5703   -3.0394  -25.3404 C   0  0  0  0  0  0  0  0  0  0  0  0
   -6.2266   -4.4331  -24.9447 C   0  0  0  0  0  0  0  0  0  0  0  0
   -5.4493   -5.1288  -25.5845 O   0  0  0  0  0  0  0  0  0  0  0  0
   -5.5004   -3.2662  -27.1627 H   0  0  0  0  0  0  0  0  0  0  0  0
   -5.8162   -0.8454  -27.8126 H   0  0  0  0  0  0  0  0  0  0  0  0
   -7.9723   -0.1814  -24.1671 H   0  0  0  0  0  0  0  0  0  0  0  0
   -8.2538   -4.6425  -22.2948 H   0  0  0  0  0  0  0  0  0  0  0  0
   -8.8703   -4.4542  -23.9511 H   0  0  0  0  0  0  0  0  0  0  0  0
   -5.3497   -6.2749  -23.4486 H   0  0  0  0  0  0  0  0  0  0  0  0
   -6.4994   -6.0097  -22.0969 H   0  0  0  0  0  0  0  0  0  0  0  0
   -8.6435   -7.0115  -22.2907 H   0  0  0  0  0  0  0  0  0  0  0  0
   -9.9335   -8.8677  -23.0449 H   0  0  0  0  0  0  0  0  0  0  0  0
   -9.6769   -8.1880  -24.7121 H   0  0  0  0  0  0  0  0  0  0  0  0
   -8.4594   -9.1535  -23.9759 H   0  0  0  0  0  0  0  0  0  0  0  0
  1  2  1  0
  2  3  1  0
  3  4  2  0
  3  5  1  0
  5  6  1  0
  6  7  1  0
  8  7  1  6
  8  9  1  0
  9 10  2  0
  9 11  1  0
 11 12  1  0
 12 13  2  0
 13 14  1  0
 14 15  2  0
 15 16  1  0
 16 17  2  0
 17 18  1  0
 18 19  2  0
 19 20  1  0
 20 21  2  0
 20 22  1  0
 19 23  1  0
 18 24  1  0
 17 25  1  0
 15 26  1  0
 13 27  1  0
 11 28  1  0
 28 29  1  0
 29 30  1  0
 30 31  1  0
 31 32  1  0
 31 33  1  0
 30 34  1  0
 30 35  1  0
 28 36  1  0
 28 37  1  0
  8 38  1  0
 38 39  2  0
 39 40  1  0
 40 41  1  0
 40 42  2  0
 42 43  1  0
 43 44  2  0
 44 45  1  0
 45 46  2  0
 43 47  1  0
 42 48  1  0
 39 49  1  0
  7 50  1  0
  7 51  1  0
  5 52  1  0
  5 53  1  0
  2 54  1  0
  1 55  1  0
  1 56  1  0
  1 57  1  0
 45  6  1  0
 29  8  1  0
 44 38  1  0
 21 12  1  0
 31 29  1  0
 21 16  1  0
M  END
>  <cnnaffinities>  (83) 
[6.12544]

>  <score>  (83) 
6.12544

>  <index>  (83) 
85

>  <Smiles>  (83) 
C(N(C(=O)C(N1C([C@@]2(C(=O)N(c3c(nc(c4c(c(c(c(c34)[H])[H])[H])[H])[H])[H])C(C32C(C3([H])[H])([H])[H])([H])[H])c2c(c(Cl)c(c(c2C1=O)[H])[H])[H])([H])[H])([H])[H])[H])([H])([H])[H]

>  <h>  (83) 
<NA>

>  <Training>  (83) 
True

>  <Success>  (83) 
True

>  <enamine_searched>  (83) 
False

>  <enamine_id>  (83) 
nan

$$$$

     RDKit          3D

 43 45  0  0  0  0  0  0  0  0999 V2000
   -8.5462   -5.5631  -25.7828 C   0  0  0  0  0  0  0  0  0  0  0  0
   -9.0619   -5.4481  -24.3461 C   0  0  1  0  0  0  0  0  0  0  0  0
   -8.0259   -5.8765  -23.3099 C   0  0  0  0  0  0  0  0  0  0  0  0
   -6.9370   -4.8322  -23.0941 C   0  0  0  0  0  0  0  0  0  0  0  0
   -7.5152   -3.5423  -22.7117 N   0  0  0  0  0  0  0  0  0  0  0  0
   -6.7562   -2.7468  -21.8650 C   0  0  0  0  0  0  0  0  0  0  0  0
   -5.6199   -3.0557  -21.5533 O   0  0  0  0  0  0  0  0  0  0  0  0
   -7.4132   -1.4758  -21.2726 C   0  0  0  0  0  0  0  0  0  0  0  0
   -6.5783   -0.8311  -20.1907 C   0  0  0  0  0  0  0  0  0  0  0  0
   -6.8757   -1.0393  -18.8716 C   0  0  0  0  0  0  0  0  0  0  0  0
   -6.1982   -0.5147  -17.8179 N   0  0  0  0  0  0  0  0  0  0  0  0
   -5.1557    0.2313  -18.0758 C   0  0  0  0  0  0  0  0  0  0  0  0
   -4.7160    0.5307  -19.3884 C   0  0  0  0  0  0  0  0  0  0  0  0
   -3.5884    1.3562  -19.6253 C   0  0  0  0  0  0  0  0  0  0  0  0
   -3.1881    1.6331  -20.9035 C   0  0  0  0  0  0  0  0  0  0  0  0
   -3.9010    1.0891  -21.9943 C   0  0  0  0  0  0  0  0  0  0  0  0
   -4.9972    0.2880  -21.7882 C   0  0  0  0  0  0  0  0  0  0  0  0
   -5.4432   -0.0131  -20.4779 C   0  0  0  0  0  0  0  0  0  0  0  0
   -5.5276   -0.1296  -22.6365 H   0  0  0  0  0  0  0  0  0  0  0  0
   -3.5780    1.3136  -23.0055 H   0  0  0  0  0  0  0  0  0  0  0  0
   -2.3296    2.2735  -21.0866 H   0  0  0  0  0  0  0  0  0  0  0  0
   -3.0577    1.7731  -18.7724 H   0  0  0  0  0  0  0  0  0  0  0  0
   -4.6038    0.6279  -17.2198 H   0  0  0  0  0  0  0  0  0  0  0  0
   -7.7176   -1.6675  -18.5853 H   0  0  0  0  0  0  0  0  0  0  0  0
   -7.6218   -0.7479  -22.0691 H   0  0  0  0  0  0  0  0  0  0  0  0
   -8.3923   -1.7512  -20.8545 H   0  0  0  0  0  0  0  0  0  0  0  0
   -8.5399   -2.9963  -23.6133 C   0  0  1  0  0  0  0  0  0  0  0  0
   -7.9410   -2.2906  -24.8404 C   0  0  0  0  0  0  0  0  0  0  0  0
   -8.7280   -1.9760  -25.5352 H   0  0  0  0  0  0  0  0  0  0  0  0
   -7.2484   -2.9312  -25.3935 H   0  0  0  0  0  0  0  0  0  0  0  0
   -7.3904   -1.3888  -24.5497 H   0  0  0  0  0  0  0  0  0  0  0  0
   -9.5907   -4.0638  -23.9669 C   0  0  0  0  0  0  0  0  0  0  0  0
  -10.2127   -3.6822  -24.7838 H   0  0  0  0  0  0  0  0  0  0  0  0
  -10.2623   -4.1723  -23.1085 H   0  0  0  0  0  0  0  0  0  0  0  0
   -9.0798   -2.2363  -23.0438 H   0  0  0  0  0  0  0  0  0  0  0  0
   -6.2996   -4.7546  -23.9883 H   0  0  0  0  0  0  0  0  0  0  0  0
   -6.2738   -5.1449  -22.2902 H   0  0  0  0  0  0  0  0  0  0  0  0
   -7.5746   -6.8275  -23.6122 H   0  0  0  0  0  0  0  0  0  0  0  0
   -8.5174   -6.0593  -22.3508 H   0  0  0  0  0  0  0  0  0  0  0  0
   -9.9136   -6.1375  -24.2799 H   0  0  0  0  0  0  0  0  0  0  0  0
   -7.5996   -5.0392  -25.9398 H   0  0  0  0  0  0  0  0  0  0  0  0
   -8.3802   -6.6140  -26.0494 H   0  0  0  0  0  0  0  0  0  0  0  0
   -9.2678   -5.1522  -26.4965 H   0  0  0  0  0  0  0  0  0  0  0  0
  1  2  1  0
  2  3  1  0
  3  4  1  0
  4  5  1  0
  5  6  1  0
  6  7  2  0
  6  8  1  0
  8  9  1  0
  9 10  2  0
 10 11  1  0
 11 12  2  0
 12 13  1  0
 13 14  2  0
 14 15  1  0
 15 16  2  0
 16 17  1  0
 17 18  2  0
 17 19  1  0
 16 20  1  0
 15 21  1  0
 14 22  1  0
 12 23  1  0
 10 24  1  0
  8 25  1  0
  8 26  1  0
  5 27  1  0
 27 28  1  0
 28 29  1  0
 28 30  1  0
 28 31  1  0
 27 32  1  0
 32 33  1  0
 32 34  1  0
 27 35  1  1
  4 36  1  0
  4 37  1  0
  3 38  1  0
  3 39  1  0
  2 40  1  6
  1 41  1  0
  1 42  1  0
  1 43  1  0
 32  2  1  0
 18  9  1  0
 18 13  1  0
M  END
>  <cnnaffinities>  (84) 
[5.05396, 4.74172]

>  <score>  (84) 
5.05396

>  <index>  (84) 
86

>  <Smiles>  (84) 
C([C@]1(C(C(N(C(=O)C(c2c(nc(c3c(c(c(c(c23)[H])[H])[H])[H])[H])[H])([H])[H])[C@@](C([H])([H])[H])(C1([H])[H])[H])([H])[H])([H])[H])[H])([H])([H])[H]

>  <h>  (84) 
<NA>

>  <Training>  (84) 
True

>  <Success>  (84) 
True

>  <enamine_searched>  (84) 
False

>  <enamine_id>  (84) 
nan

$$$$

     RDKit          3D

 59 64  0  0  0  0  0  0  0  0999 V2000
   -8.1706   -4.0974  -23.5559 C   0  0  0  0  0  0  0  0  0  0  0  0
   -8.4264   -2.9519  -22.5894 C   0  0  1  0  0  0  0  0  0  0  0  0
   -7.2973   -2.7435  -21.5757 C   0  0  0  0  0  0  0  0  0  0  0  0
   -7.3880   -1.3372  -21.2634 N   0  0  0  0  0  0  0  0  0  0  0  0
   -6.6056   -0.7630  -20.2439 C   0  0  0  0  0  0  0  0  0  0  0  0
   -6.9228   -1.0142  -18.9342 C   0  0  0  0  0  0  0  0  0  0  0  0
   -6.2611   -0.4980  -17.8765 N   0  0  0  0  0  0  0  0  0  0  0  0
   -5.2144    0.2483  -18.1303 C   0  0  0  0  0  0  0  0  0  0  0  0
   -4.7525    0.5443  -19.4437 C   0  0  0  0  0  0  0  0  0  0  0  0
   -3.6053    1.3497  -19.6530 C   0  0  0  0  0  0  0  0  0  0  0  0
   -3.1729    1.6207  -20.9223 C   0  0  0  0  0  0  0  0  0  0  0  0
   -3.8540    1.0866  -22.0380 C   0  0  0  0  0  0  0  0  0  0  0  0
   -4.9649    0.3003  -21.8616 C   0  0  0  0  0  0  0  0  0  0  0  0
   -5.4541    0.0251  -20.5494 C   0  0  0  0  0  0  0  0  0  0  0  0
   -5.4733   -0.1004  -22.7340 H   0  0  0  0  0  0  0  0  0  0  0  0
   -3.4961    1.3075  -23.0384 H   0  0  0  0  0  0  0  0  0  0  0  0
   -2.3065    2.2538  -21.0772 H   0  0  0  0  0  0  0  0  0  0  0  0
   -3.0954    1.7490  -18.7835 H   0  0  0  0  0  0  0  0  0  0  0  0
   -4.6631    0.6470  -17.2793 H   0  0  0  0  0  0  0  0  0  0  0  0
   -7.7762   -1.6524  -18.7073 H   0  0  0  0  0  0  0  0  0  0  0  0
   -8.1410   -0.5939  -22.1363 C   0  0  0  0  0  0  0  0  0  0  0  0
   -8.2979    0.6075  -22.0485 O   0  0  0  0  0  0  0  0  0  0  0  0
   -8.6759   -1.5342  -23.2312 C   0  0  1  0  0  0  0  0  0  0  0  0
   -7.8630   -1.1947  -24.5091 C   0  0  0  0  0  0  0  0  0  0  0  0
   -8.4231   -1.7496  -25.7331 N   0  0  0  0  0  0  0  0  0  0  0  0
   -7.5024   -2.2855  -26.7334 C   0  0  0  0  0  0  0  0  0  0  0  0
   -6.5397   -1.2629  -27.2651 C   0  0  0  0  0  0  0  0  0  0  0  0
   -5.2501   -0.8983  -26.9128 C   0  0  0  0  0  0  0  0  0  0  0  0
   -4.9724    0.2343  -27.7114 C   0  0  0  0  0  0  0  0  0  0  0  0
   -5.9926    0.5269  -28.5076 N   0  0  0  0  0  0  0  0  0  0  0  0
   -6.9262   -0.3964  -28.2396 N   0  0  0  0  0  0  0  0  0  0  0  0
   -8.2396   -0.2844  -28.8479 C   0  0  0  0  0  0  0  0  0  0  0  0
   -8.5060   -1.2045  -29.3824 H   0  0  0  0  0  0  0  0  0  0  0  0
   -8.1862    0.5647  -29.5309 H   0  0  0  0  0  0  0  0  0  0  0  0
   -8.9824   -0.1044  -28.0751 H   0  0  0  0  0  0  0  0  0  0  0  0
   -4.1235    0.9103  -27.6946 H   0  0  0  0  0  0  0  0  0  0  0  0
   -4.6050   -1.3473  -26.1630 H   0  0  0  0  0  0  0  0  0  0  0  0
   -6.9724   -3.1432  -26.3030 H   0  0  0  0  0  0  0  0  0  0  0  0
   -8.1337   -2.6704  -27.5349 H   0  0  0  0  0  0  0  0  0  0  0  0
   -9.7635   -1.7936  -25.9815 C   0  0  0  0  0  0  0  0  0  0  0  0
  -10.2350   -2.0898  -27.0745 O   0  0  0  0  0  0  0  0  0  0  0  0
  -10.6464   -1.4916  -24.8187 C   0  0  0  0  0  0  0  0  0  0  0  0
  -12.0156   -1.4360  -25.0580 C   0  0  0  0  0  0  0  0  0  0  0  0
  -12.9034   -1.1588  -24.0411 C   0  0  0  0  0  0  0  0  0  0  0  0
  -12.3918   -1.0161  -22.7599 C   0  0  0  0  0  0  0  0  0  0  0  0
  -13.2724   -0.8231  -21.7711 F   0  0  0  0  0  0  0  0  0  0  0  0
  -11.0386   -1.0836  -22.4809 C   0  0  0  0  0  0  0  0  0  0  0  0
  -10.1426   -1.3215  -23.5283 C   0  0  0  0  0  0  0  0  0  0  0  0
  -10.6680   -0.9399  -21.4714 H   0  0  0  0  0  0  0  0  0  0  0  0
  -13.9649   -1.0274  -24.2221 H   0  0  0  0  0  0  0  0  0  0  0  0
  -12.3505   -1.6242  -26.0666 H   0  0  0  0  0  0  0  0  0  0  0  0
   -6.8370   -1.5573  -24.4043 H   0  0  0  0  0  0  0  0  0  0  0  0
   -7.7986   -0.0978  -24.5707 H   0  0  0  0  0  0  0  0  0  0  0  0
   -7.4203   -3.3044  -20.6516 H   0  0  0  0  0  0  0  0  0  0  0  0
   -6.3110   -3.0086  -21.9877 H   0  0  0  0  0  0  0  0  0  0  0  0
   -9.3384   -3.1742  -22.0147 H   0  0  0  0  0  0  0  0  0  0  0  0
   -8.9795   -4.1778  -24.2873 H   0  0  0  0  0  0  0  0  0  0  0  0
   -8.0923   -5.0440  -23.0128 H   0  0  0  0  0  0  0  0  0  0  0  0
   -7.2306   -3.9407  -24.0954 H   0  0  0  0  0  0  0  0  0  0  0  0
  1  2  1  0
  2  3  1  0
  3  4  1  0
  4  5  1  0
  5  6  2  0
  6  7  1  0
  7  8  2  0
  8  9  1  0
  9 10  2  0
 10 11  1  0
 11 12  2  0
 12 13  1  0
 13 14  2  0
 13 15  1  0
 12 16  1  0
 11 17  1  0
 10 18  1  0
  8 19  1  0
  6 20  1  0
  4 21  1  0
 21 22  2  0
 21 23  1  0
 23 24  1  6
 24 25  1  0
 25 26  1  0
 26 27  1  0
 27 28  2  0
 28 29  1  0
 29 30  2  0
 30 31  1  0
 31 32  1  0
 32 33  1  0
 32 34  1  0
 32 35  1  0
 29 36  1  0
 28 37  1  0
 26 38  1  0
 26 39  1  0
 25 40  1  0
 40 41  2  0
 40 42  1  0
 42 43  2  0
 43 44  1  0
 44 45  2  0
 45 46  1  0
 45 47  1  0
 47 48  2  0
 47 49  1  0
 44 50  1  0
 43 51  1  0
 24 52  1  0
 24 53  1  0
  3 54  1  0
  3 55  1  0
  2 56  1  1
  1 57  1  0
  1 58  1  0
  1 59  1  0
 23  2  1  0
 31 27  1  0
 48 42  1  0
 14  5  1  0
 48 23  1  0
 14  9  1  0
M  END
>  <cnnaffinities>  (85) 
[6.29957, 6.30422, 6.21862]

>  <score>  (85) 
6.29957

>  <index>  (85) 
87

>  <Smiles>  (85) 
C([C@]1(C(N(c2c(nc(c3c(c(c(c(c23)[H])[H])[H])[H])[H])[H])C(=O)[C@]21C(N(C(c1c(c(nn1C([H])([H])[H])[H])[H])([H])[H])C(=O)c1c(c(c(F)c(c21)[H])[H])[H])([H])[H])([H])[H])[H])([H])([H])[H]

>  <h>  (85) 
<NA>

>  <Training>  (85) 
True

>  <Success>  (85) 
True

>  <enamine_searched>  (85) 
False

>  <enamine_id>  (85) 
nan

$$$$

     RDKit          3D

 40 42  0  0  0  0  0  0  0  0999 V2000
   -8.4691    0.7567  -21.5554 O   0  0  0  0  0  0  0  0  0  0  0  0
   -8.5718   -0.4397  -21.7665 C   0  0  0  0  0  0  0  0  0  0  0  0
   -7.4897   -1.4135  -21.2833 C   0  0  0  0  0  0  0  0  0  0  0  0
   -6.6122   -0.8165  -20.2108 C   0  0  0  0  0  0  0  0  0  0  0  0
   -6.9210   -1.0114  -18.8902 C   0  0  0  0  0  0  0  0  0  0  0  0
   -6.2508   -0.4821  -17.8337 N   0  0  0  0  0  0  0  0  0  0  0  0
   -5.1939    0.2454  -18.0978 C   0  0  0  0  0  0  0  0  0  0  0  0
   -4.7467    0.5299  -19.4132 C   0  0  0  0  0  0  0  0  0  0  0  0
   -3.6097    1.3462  -19.6425 C   0  0  0  0  0  0  0  0  0  0  0  0
   -3.2170    1.6424  -20.9197 C   0  0  0  0  0  0  0  0  0  0  0  0
   -3.9412    1.1272  -22.0181 C   0  0  0  0  0  0  0  0  0  0  0  0
   -5.0460    0.3311  -21.8176 C   0  0  0  0  0  0  0  0  0  0  0  0
   -5.4792    0.0047  -20.5050 C   0  0  0  0  0  0  0  0  0  0  0  0
   -5.6127   -0.0329  -22.6685 H   0  0  0  0  0  0  0  0  0  0  0  0
   -3.6265    1.3760  -23.0289 H   0  0  0  0  0  0  0  0  0  0  0  0
   -2.3628    2.2925  -21.0935 H   0  0  0  0  0  0  0  0  0  0  0  0
   -3.0826    1.7456  -18.7792 H   0  0  0  0  0  0  0  0  0  0  0  0
   -4.6300    0.6526  -17.2554 H   0  0  0  0  0  0  0  0  0  0  0  0
   -7.7647   -1.6467  -18.6114 H   0  0  0  0  0  0  0  0  0  0  0  0
   -6.9050   -1.7584  -22.1471 H   0  0  0  0  0  0  0  0  0  0  0  0
   -7.9944   -2.2985  -20.8769 H   0  0  0  0  0  0  0  0  0  0  0  0
   -9.6617   -0.9719  -22.4047 N   0  0  0  0  0  0  0  0  0  0  0  0
  -10.7692   -0.0722  -22.7058 C   0  0  0  0  0  0  0  0  0  0  0  0
  -12.0754   -0.8368  -22.6536 C   0  0  0  0  0  0  0  0  0  0  0  0
  -12.1622   -1.8751  -23.7767 C   0  0  0  0  0  0  0  0  0  0  0  0
  -13.1582   -2.9384  -23.3572 C   0  0  0  0  0  0  0  0  0  0  0  0
  -12.7078   -3.5434  -22.2138 F   0  0  0  0  0  0  0  0  0  0  0  0
  -14.3654   -2.3695  -23.0645 F   0  0  0  0  0  0  0  0  0  0  0  0
  -13.3326   -3.7334  -24.0885 H   0  0  0  0  0  0  0  0  0  0  0  0
  -10.7628   -2.4635  -24.0385 C   0  0  0  0  0  0  0  0  0  0  0  0
   -9.8390   -2.3647  -22.8180 C   0  0  0  0  0  0  0  0  0  0  0  0
   -8.8648   -2.7865  -23.0782 H   0  0  0  0  0  0  0  0  0  0  0  0
  -10.2490   -2.9583  -21.9946 H   0  0  0  0  0  0  0  0  0  0  0  0
  -10.8381   -3.5055  -24.3692 H   0  0  0  0  0  0  0  0  0  0  0  0
  -10.2908   -1.9095  -24.8561 H   0  0  0  0  0  0  0  0  0  0  0  0
  -12.5580   -1.4248  -24.6960 H   0  0  0  0  0  0  0  0  0  0  0  0
  -12.0826   -1.3882  -21.7176 H   0  0  0  0  0  0  0  0  0  0  0  0
  -12.9571   -0.1945  -22.6569 H   0  0  0  0  0  0  0  0  0  0  0  0
  -10.7343    0.7368  -21.9788 H   0  0  0  0  0  0  0  0  0  0  0  0
  -10.6245    0.3649  -23.6994 H   0  0  0  0  0  0  0  0  0  0  0  0
  1  2  2  0
  2  3  1  0
  3  4  1  0
  4  5  2  0
  5  6  1  0
  6  7  2  0
  7  8  1  0
  8  9  2  0
  9 10  1  0
 10 11  2  0
 11 12  1  0
 12 13  2  0
 12 14  1  0
 11 15  1  0
 10 16  1  0
  9 17  1  0
  7 18  1  0
  5 19  1  0
  3 20  1  0
  3 21  1  0
  2 22  1  0
 22 23  1  0
 23 24  1  0
 24 25  1  0
 25 26  1  0
 26 27  1  0
 26 28  1  0
 26 29  1  0
 25 30  1  0
 30 31  1  0
 31 32  1  0
 31 33  1  0
 30 34  1  0
 30 35  1  0
 25 36  1  0
 24 37  1  0
 24 38  1  0
 23 39  1  0
 23 40  1  0
 13  4  1  0
 31 22  1  0
 13  8  1  0
M  END
>  <cnnaffinities>  (86) 
[5.27287, 4.9348, 4.93774, 4.92068, 4.80339, 4.8034, 5.03095]

>  <score>  (86) 
5.27287

>  <index>  (86) 
88

>  <Smiles>  (86) 
O=C(C(c1c(nc(c2c(c(c(c(c12)[H])[H])[H])[H])[H])[H])([H])[H])N1C(C(C(C(F)(F)[H])(C(C1([H])[H])([H])[H])[H])([H])[H])([H])[H]

>  <h>  (86) 
<NA>

>  <Training>  (86) 
True

>  <Success>  (86) 
True

>  <enamine_searched>  (86) 
False

>  <enamine_id>  (86) 
nan

$$$$

     RDKit          3D

 43 45  0  0  0  0  0  0  0  0999 V2000
   -9.7539   -4.1866  -25.8455 C   0  0  0  0  0  0  0  0  0  0  0  0
   -8.2273   -4.2037  -25.7060 C   0  0  0  0  0  0  0  0  0  0  0  0
   -7.6342   -4.8421  -26.9675 C   0  0  0  0  0  0  0  0  0  0  0  0
   -8.0335   -5.8503  -27.1258 H   0  0  0  0  0  0  0  0  0  0  0  0
   -7.8641   -4.2554  -27.8637 H   0  0  0  0  0  0  0  0  0  0  0  0
   -6.5444   -4.9312  -26.9022 H   0  0  0  0  0  0  0  0  0  0  0  0
   -7.6877   -2.7683  -25.5707 C   0  0  0  0  0  0  0  0  0  0  0  0
   -7.7331   -2.2027  -24.1510 C   0  0  0  0  0  0  0  0  0  0  0  0
   -7.0466   -3.0690  -23.1997 N   0  0  0  0  0  0  0  0  0  0  0  0
   -6.6941   -2.6858  -21.9291 C   0  0  0  0  0  0  0  0  0  0  0  0
   -5.8695   -3.3151  -21.2820 O   0  0  0  0  0  0  0  0  0  0  0  0
   -7.3945   -1.4622  -21.2894 C   0  0  0  0  0  0  0  0  0  0  0  0
   -6.5751   -0.8294  -20.1883 C   0  0  0  0  0  0  0  0  0  0  0  0
   -6.8729   -1.0419  -18.8691 C   0  0  0  0  0  0  0  0  0  0  0  0
   -6.1957   -0.5146  -17.8136 N   0  0  0  0  0  0  0  0  0  0  0  0
   -5.1552    0.2308  -18.0721 C   0  0  0  0  0  0  0  0  0  0  0  0
   -4.7153    0.5340  -19.3849 C   0  0  0  0  0  0  0  0  0  0  0  0
   -3.5888    1.3587  -19.6259 C   0  0  0  0  0  0  0  0  0  0  0  0
   -3.1913    1.6378  -20.9021 C   0  0  0  0  0  0  0  0  0  0  0  0
   -3.9080    1.0958  -21.9945 C   0  0  0  0  0  0  0  0  0  0  0  0
   -5.0023    0.2971  -21.7864 C   0  0  0  0  0  0  0  0  0  0  0  0
   -5.4450   -0.0071  -20.4756 C   0  0  0  0  0  0  0  0  0  0  0  0
   -5.5377   -0.1096  -22.6403 H   0  0  0  0  0  0  0  0  0  0  0  0
   -3.5875    1.3235  -23.0055 H   0  0  0  0  0  0  0  0  0  0  0  0
   -2.3330    2.2773  -21.0887 H   0  0  0  0  0  0  0  0  0  0  0  0
   -3.0539    1.7743  -18.7735 H   0  0  0  0  0  0  0  0  0  0  0  0
   -4.6006    0.6287  -17.2170 H   0  0  0  0  0  0  0  0  0  0  0  0
   -7.7179   -1.6694  -18.5866 H   0  0  0  0  0  0  0  0  0  0  0  0
   -8.3327   -1.8269  -20.8471 H   0  0  0  0  0  0  0  0  0  0  0  0
   -7.6871   -0.7026  -22.0244 H   0  0  0  0  0  0  0  0  0  0  0  0
   -6.6852   -4.4078  -23.6631 C   0  0  0  0  0  0  0  0  0  0  0  0
   -7.8331   -5.0230  -24.4569 C   0  0  0  0  0  0  0  0  0  0  0  0
   -7.5788   -6.0461  -24.7499 H   0  0  0  0  0  0  0  0  0  0  0  0
   -8.6881   -5.1207  -23.7801 H   0  0  0  0  0  0  0  0  0  0  0  0
   -6.4509   -5.0168  -22.7929 H   0  0  0  0  0  0  0  0  0  0  0  0
   -5.7714   -4.3815  -24.2692 H   0  0  0  0  0  0  0  0  0  0  0  0
   -8.7720   -2.0376  -23.8461 H   0  0  0  0  0  0  0  0  0  0  0  0
   -7.2555   -1.2165  -24.1664 H   0  0  0  0  0  0  0  0  0  0  0  0
   -8.2546   -2.1093  -26.2343 H   0  0  0  0  0  0  0  0  0  0  0  0
   -6.6581   -2.7143  -25.9419 H   0  0  0  0  0  0  0  0  0  0  0  0
  -10.2343   -3.6983  -24.9919 H   0  0  0  0  0  0  0  0  0  0  0  0
  -10.1577   -5.2026  -25.9153 H   0  0  0  0  0  0  0  0  0  0  0  0
  -10.0657   -3.6495  -26.7478 H   0  0  0  0  0  0  0  0  0  0  0  0
  1  2  1  0
  2  3  1  0
  3  4  1  0
  3  5  1  0
  3  6  1  0
  2  7  1  0
  7  8  1  0
  8  9  1  0
  9 10  1  0
 10 11  2  0
 10 12  1  0
 12 13  1  0
 13 14  2  0
 14 15  1  0
 15 16  2  0
 16 17  1  0
 17 18  2  0
 18 19  1  0
 19 20  2  0
 20 21  1  0
 21 22  2  0
 21 23  1  0
 20 24  1  0
 19 25  1  0
 18 26  1  0
 16 27  1  0
 14 28  1  0
 12 29  1  0
 12 30  1  0
  9 31  1  0
 31 32  1  0
 32 33  1  0
 32 34  1  0
 31 35  1  0
 31 36  1  0
  8 37  1  0
  8 38  1  0
  7 39  1  0
  7 40  1  0
  1 41  1  0
  1 42  1  0
  1 43  1  0
 32  2  1  0
 22 13  1  0
 22 17  1  0
M  END
>  <cnnaffinities>  (87) 
[5.13407, 4.82227, 5.1011, 5.10108, 5.10106, 4.53557, 4.53917, 4.80589, 4.80591, 4.8059]

>  <score>  (87) 
5.13407

>  <index>  (87) 
89

>  <Smiles>  (87) 
C(C1(C([H])([H])[H])C(C(N(C(=O)C(c2c(nc(c3c(c(c(c(c23)[H])[H])[H])[H])[H])[H])([H])[H])C(C1([H])[H])([H])[H])([H])[H])([H])[H])([H])([H])[H]

>  <h>  (87) 
<NA>

>  <Training>  (87) 
True

>  <Success>  (87) 
True

>  <enamine_searched>  (87) 
False

>  <enamine_id>  (87) 
nan

$$$$

     RDKit          3D

 64 68  0  0  0  0  0  0  0  0999 V2000
   -7.8053   -4.2068  -27.6656 C   0  0  0  0  0  0  0  0  0  0  0  0
   -8.5775   -3.2098  -26.9467 N   0  0  0  0  0  0  0  0  0  0  0  0
   -9.8675   -3.4864  -26.6029 C   0  0  0  0  0  0  0  0  0  0  0  0
  -10.3979   -4.5371  -26.9139 O   0  0  0  0  0  0  0  0  0  0  0  0
  -10.5687   -2.4073  -25.7720 C   0  0  0  0  0  0  0  0  0  0  0  0
  -10.3726   -2.6201  -24.3369 N   0  0  0  0  0  0  0  0  0  0  0  0
   -9.5218   -1.6785  -23.5919 C   0  0  0  0  0  0  0  0  0  0  0  0
   -8.9207   -2.2543  -22.2811 C   0  0  2  0  0  0  0  0  0  0  0  0
   -8.3168   -1.1412  -21.4346 C   0  0  0  0  0  0  0  0  0  0  0  0
   -8.9404   -0.2180  -20.9452 O   0  0  0  0  0  0  0  0  0  0  0  0
   -6.9822   -1.3737  -21.2458 N   0  0  0  0  0  0  0  0  0  0  0  0
   -6.3083   -0.7255  -20.1786 C   0  0  0  0  0  0  0  0  0  0  0  0
   -6.7288   -0.8621  -18.8772 C   0  0  0  0  0  0  0  0  0  0  0  0
   -6.0923   -0.3114  -17.8157 N   0  0  0  0  0  0  0  0  0  0  0  0
   -5.0196    0.4066  -18.0476 C   0  0  0  0  0  0  0  0  0  0  0  0
   -4.5089    0.6676  -19.3508 C   0  0  0  0  0  0  0  0  0  0  0  0
   -3.3770    1.4925  -19.5841 C   0  0  0  0  0  0  0  0  0  0  0  0
   -2.9944    1.7893  -20.8651 C   0  0  0  0  0  0  0  0  0  0  0  0
   -3.7198    1.2861  -21.9707 C   0  0  0  0  0  0  0  0  0  0  0  0
   -4.8020    0.4675  -21.7693 C   0  0  0  0  0  0  0  0  0  0  0  0
   -5.1948    0.1195  -20.4536 C   0  0  0  0  0  0  0  0  0  0  0  0
   -5.3890    0.1043  -22.6073 H   0  0  0  0  0  0  0  0  0  0  0  0
   -3.4295    1.5559  -22.9818 H   0  0  0  0  0  0  0  0  0  0  0  0
   -2.1418    2.4374  -21.0444 H   0  0  0  0  0  0  0  0  0  0  0  0
   -2.8425    1.8981  -18.7284 H   0  0  0  0  0  0  0  0  0  0  0  0
   -4.5059    0.8301  -17.1805 H   0  0  0  0  0  0  0  0  0  0  0  0
   -7.6247   -1.4322  -18.6395 H   0  0  0  0  0  0  0  0  0  0  0  0
   -6.4781   -2.4708  -22.0633 C   0  0  0  0  0  0  0  0  0  0  0  0
   -7.7514   -3.2830  -22.4418 C   0  0  2  0  0  0  0  0  0  0  0  0
   -7.6339   -3.9850  -23.8098 C   0  0  0  0  0  0  0  0  0  0  0  0
   -6.4487   -5.3299  -23.8677 S   0  0  0  0  0  0  0  0  0  0  0  0
   -6.5427   -5.9474  -25.1816 O   0  0  0  0  0  0  0  0  0  0  0  0
   -5.1683   -4.8545  -23.3672 O   0  0  0  0  0  0  0  0  0  0  0  0
   -7.0286   -6.4223  -22.7659 N   0  0  0  0  0  0  0  0  0  0  0  0
   -8.3354   -7.0117  -23.0378 C   0  0  0  0  0  0  0  0  0  0  0  0
   -8.2742   -7.5972  -23.9554 H   0  0  0  0  0  0  0  0  0  0  0  0
   -9.1391   -6.2649  -23.1384 H   0  0  0  0  0  0  0  0  0  0  0  0
   -8.5890   -7.6676  -22.2068 H   0  0  0  0  0  0  0  0  0  0  0  0
   -6.8644   -6.0919  -21.8197 H   0  0  0  0  0  0  0  0  0  0  0  0
   -7.3072   -3.3082  -24.6029 H   0  0  0  0  0  0  0  0  0  0  0  0
   -8.5849   -4.4187  -24.1311 H   0  0  0  0  0  0  0  0  0  0  0  0
   -7.9154   -4.0478  -21.6711 H   0  0  0  0  0  0  0  0  0  0  0  0
   -5.9984   -2.0788  -22.9676 H   0  0  0  0  0  0  0  0  0  0  0  0
   -5.7299   -3.0546  -21.5219 H   0  0  0  0  0  0  0  0  0  0  0  0
  -10.1046   -2.6928  -21.4131 C   0  0  0  0  0  0  0  0  0  0  0  0
  -10.4954   -3.9744  -21.3293 C   0  0  0  0  0  0  0  0  0  0  0  0
  -13.2921   -4.2549  -20.5963 C   0  0  0  0  0  0  0  0  0  0  0  0
  -13.2255   -5.0032  -19.4968 F   0  0  0  0  0  0  0  0  0  0  0  0
  -13.3014   -4.1803  -20.6469 C   0  0  0  0  0  0  0  0  0  0  0  0
  -12.7694   -3.8719  -21.8619 C   0  0  0  0  0  0  0  0  0  0  0  0
  -11.3281   -3.5397  -22.2619 C   0  0  0  0  0  0  0  0  0  0  0  0
  -11.2965   -3.4538  -23.7384 C   0  0  0  0  0  0  0  0  0  0  0  0
  -12.1313   -4.0581  -24.3823 O   0  0  0  0  0  0  0  0  0  0  0  0
  -13.5503   -3.4607  -22.3893 H   0  0  0  0  0  0  0  0  0  0  0  0
  -14.5950   -4.1766  -20.7225 H   0  0  0  0  0  0  0  0  0  0  0  0
  -10.4108   -1.8820  -20.7197 H   0  0  0  0  0  0  0  0  0  0  0  0
  -10.1006   -0.7921  -23.3013 H   0  0  0  0  0  0  0  0  0  0  0  0
   -8.7071   -1.3542  -24.2556 H   0  0  0  0  0  0  0  0  0  0  0  0
  -11.6336   -2.4768  -25.9972 H   0  0  0  0  0  0  0  0  0  0  0  0
  -10.2169   -1.4071  -26.0604 H   0  0  0  0  0  0  0  0  0  0  0  0
   -8.2216   -2.2743  -26.8382 H   0  0  0  0  0  0  0  0  0  0  0  0
   -6.7840   -3.8423  -27.7962 H   0  0  0  0  0  0  0  0  0  0  0  0
   -8.2458   -4.4228  -28.6455 H   0  0  0  0  0  0  0  0  0  0  0  0
   -7.7805   -5.1315  -27.0808 H   0  0  0  0  0  0  0  0  0  0  0  0
  1  2  1  0
  2  3  1  0
  3  4  2  0
  3  5  1  0
  5  6  1  0
  6  7  1  0
  8  7  1  6
  8  9  1  0
  9 10  2  0
  9 11  1  0
 11 12  1  0
 12 13  2  0
 13 14  1  0
 14 15  2  0
 15 16  1  0
 16 17  2  0
 17 18  1  0
 18 19  2  0
 19 20  1  0
 20 21  2  0
 20 22  1  0
 19 23  1  0
 18 24  1  0
 17 25  1  0
 15 26  1  0
 13 27  1  0
 11 28  1  0
 28 29  1  0
 29 30  1  0
 30 31  1  0
 31 32  2  0
 31 33  2  0
 31 34  1  0
 34 35  1  0
 35 36  1  0
 35 37  1  0
 35 38  1  0
 34 39  1  0
 30 40  1  0
 30 41  1  0
 29 42  1  1
 28 43  1  0
 28 44  1  0
  8 45  1  0
 45 46  2  0
 46 47  1  0
 47 48  1  0
 47 49  2  0
 49 50  1  0
 50 51  2  0
 51 52  1  0
 52 53  2  0
 50 54  1  0
 49 55  1  0
 46 56  1  0
  7 57  1  0
  7 58  1  0
  5 59  1  0
  5 60  1  0
  2 61  1  0
  1 62  1  0
  1 63  1  0
  1 64  1  0
 52  6  1  0
 29  8  1  0
 51 45  1  0
 21 12  1  0
 21 16  1  0
M  END
>  <cnnaffinities>  (88) 
[6.58162]

>  <score>  (88) 
6.58162

>  <index>  (88) 
90

>  <Smiles>  (88) 
C(N(C(=O)C(N1C([C@@]2(C(=O)N(c3c(nc(c4c(c(c(c(c34)[H])[H])[H])[H])[H])[H])C([C@@]2(C(S(=O)(=O)N(C([H])([H])[H])[H])([H])[H])[H])([H])[H])c2c(c(F)c(c(c2C1=O)[H])[H])[H])([H])[H])([H])[H])[H])([H])([H])[H]

>  <h>  (88) 
<NA>

>  <Training>  (88) 
True

>  <Success>  (88) 
True

>  <enamine_searched>  (88) 
False

>  <enamine_id>  (88) 
nan

$$$$

     RDKit          3D

 66 71  0  0  0  0  0  0  0  0999 V2000
   -7.4774    3.2629  -21.7471 C   0  0  0  0  0  0  0  0  0  0  0  0
   -8.5409    2.7946  -22.6184 N   0  0  0  0  0  0  0  0  0  0  0  0
   -8.1833    2.0097  -23.6702 C   0  0  0  0  0  0  0  0  0  0  0  0
   -7.0218    1.7226  -23.9219 O   0  0  0  0  0  0  0  0  0  0  0  0
   -9.3319    1.5173  -24.5376 C   0  0  0  0  0  0  0  0  0  0  0  0
   -9.9061    0.3152  -23.9754 N   0  0  0  0  0  0  0  0  0  0  0  0
   -9.1240   -0.9058  -23.9998 C   0  0  0  0  0  0  0  0  0  0  0  0
   -9.2882   -1.6963  -22.6738 C   0  0  2  0  0  0  0  0  0  0  0  0
   -8.6649   -0.8566  -21.5283 C   0  0  0  0  0  0  0  0  0  0  0  0
   -9.1490    0.1284  -21.0082 O   0  0  0  0  0  0  0  0  0  0  0  0
   -7.4333   -1.3924  -21.2148 N   0  0  0  0  0  0  0  0  0  0  0  0
   -6.6191   -0.8163  -20.2036 C   0  0  0  0  0  0  0  0  0  0  0  0
   -6.9410   -1.0162  -18.8841 C   0  0  0  0  0  0  0  0  0  0  0  0
   -6.2467   -0.5031  -17.8434 N   0  0  0  0  0  0  0  0  0  0  0  0
   -5.1920    0.2249  -18.1091 C   0  0  0  0  0  0  0  0  0  0  0  0
   -4.7458    0.5198  -19.4254 C   0  0  0  0  0  0  0  0  0  0  0  0
   -3.6193    1.3526  -19.6578 C   0  0  0  0  0  0  0  0  0  0  0  0
   -3.2348    1.6560  -20.9336 C   0  0  0  0  0  0  0  0  0  0  0  0
   -3.9549    1.1379  -22.0307 C   0  0  0  0  0  0  0  0  0  0  0  0
   -5.0512    0.3284  -21.8322 C   0  0  0  0  0  0  0  0  0  0  0  0
   -5.4765   -0.0103  -20.5188 C   0  0  0  0  0  0  0  0  0  0  0  0
   -5.6199   -0.0090  -22.6923 H   0  0  0  0  0  0  0  0  0  0  0  0
   -3.6467    1.3909  -23.0408 H   0  0  0  0  0  0  0  0  0  0  0  0
   -2.3821    2.3048  -21.1086 H   0  0  0  0  0  0  0  0  0  0  0  0
   -3.0881    1.7523  -18.7979 H   0  0  0  0  0  0  0  0  0  0  0  0
   -4.6256    0.6245  -17.2650 H   0  0  0  0  0  0  0  0  0  0  0  0
   -7.8023   -1.6278  -18.6273 H   0  0  0  0  0  0  0  0  0  0  0  0
   -7.0997   -2.5802  -21.9845 C   0  0  0  0  0  0  0  0  0  0  0  0
   -8.4349   -2.9886  -22.6296 C   0  0  2  0  0  0  0  0  0  0  0  0
   -8.2422   -3.7561  -23.9387 C   0  0  0  0  0  0  0  0  0  0  0  0
   -9.4898   -4.2265  -24.4859 N   0  0  0  0  0  0  0  0  0  0  0  0
   -9.5879   -4.8855  -25.6804 C   0  0  0  0  0  0  0  0  0  0  0  0
   -8.4578   -5.2095  -26.4767 C   0  0  0  0  0  0  0  0  0  0  0  0
   -8.5704   -5.8384  -27.6365 N   0  0  0  0  0  0  0  0  0  0  0  0
   -9.8063   -6.1689  -28.0263 C   0  0  0  0  0  0  0  0  0  0  0  0
  -10.9108   -5.8592  -27.2460 C   0  0  0  0  0  0  0  0  0  0  0  0
  -10.8164   -5.2215  -26.0802 N   0  0  0  0  0  0  0  0  0  0  0  0
  -11.9180   -6.1264  -27.5629 H   0  0  0  0  0  0  0  0  0  0  0  0
   -9.9130   -6.6884  -28.9748 H   0  0  0  0  0  0  0  0  0  0  0  0
   -7.4486   -4.9505  -26.1625 H   0  0  0  0  0  0  0  0  0  0  0  0
  -10.3713   -4.0256  -24.0294 H   0  0  0  0  0  0  0  0  0  0  0  0
   -7.5883   -4.6164  -23.7493 H   0  0  0  0  0  0  0  0  0  0  0  0
   -7.7223   -3.1235  -24.6757 H   0  0  0  0  0  0  0  0  0  0  0  0
   -8.9329   -3.6671  -21.9323 H   0  0  0  0  0  0  0  0  0  0  0  0
   -6.3332   -2.3635  -22.7437 H   0  0  0  0  0  0  0  0  0  0  0  0
   -6.7149   -3.3691  -21.3328 H   0  0  0  0  0  0  0  0  0  0  0  0
  -10.7771   -1.9030  -22.4446 C   0  0  0  0  0  0  0  0  0  0  0  0
  -11.2902   -2.9721  -21.6997 C   0  0  0  0  0  0  0  0  0  0  0  0
  -12.6432   -3.0357  -21.4197 C   0  0  0  0  0  0  0  0  0  0  0  0
  -13.2472   -4.2270  -20.3185 Cl  0  0  0  0  0  0  0  0  0  0  0  0
  -13.5422   -2.0918  -21.8982 C   0  0  0  0  0  0  0  0  0  0  0  0
  -13.0521   -1.0430  -22.6456 C   0  0  0  0  0  0  0  0  0  0  0  0
  -11.6809   -0.9180  -22.8704 C   0  0  0  0  0  0  0  0  0  0  0  0
  -11.1765    0.3518  -23.4845 C   0  0  0  0  0  0  0  0  0  0  0  0
  -11.8637    1.3671  -23.5185 O   0  0  0  0  0  0  0  0  0  0  0  0
  -13.7229   -0.2798  -23.0212 H   0  0  0  0  0  0  0  0  0  0  0  0
  -14.5809   -2.1580  -21.5969 H   0  0  0  0  0  0  0  0  0  0  0  0
  -10.6622   -3.7262  -21.2408 H   0  0  0  0  0  0  0  0  0  0  0  0
   -8.0776   -0.6248  -24.1595 H   0  0  0  0  0  0  0  0  0  0  0  0
   -9.4573   -1.5255  -24.8416 H   0  0  0  0  0  0  0  0  0  0  0  0
  -10.1126    2.2763  -24.5392 H   0  0  0  0  0  0  0  0  0  0  0  0
   -8.9382    1.3386  -25.5497 H   0  0  0  0  0  0  0  0  0  0  0  0
   -9.4816    2.7545  -22.2403 H   0  0  0  0  0  0  0  0  0  0  0  0
   -7.9019    3.7559  -20.8707 H   0  0  0  0  0  0  0  0  0  0  0  0
   -6.8450    2.4142  -21.4494 H   0  0  0  0  0  0  0  0  0  0  0  0
   -6.8522    3.9875  -22.2763 H   0  0  0  0  0  0  0  0  0  0  0  0
  1  2  1  0
  2  3  1  0
  3  4  2  0
  3  5  1  0
  5  6  1  0
  6  7  1  0
  8  7  1  6
  8  9  1  0
  9 10  2  0
  9 11  1  0
 11 12  1  0
 12 13  2  0
 13 14  1  0
 14 15  2  0
 15 16  1  0
 16 17  2  0
 17 18  1  0
 18 19  2  0
 19 20  1  0
 20 21  2  0
 20 22  1  0
 19 23  1  0
 18 24  1  0
 17 25  1  0
 15 26  1  0
 13 27  1  0
 11 28  1  0
 28 29  1  0
 29 30  1  0
 30 31  1  0
 31 32  1  0
 32 33  2  0
 33 34  1  0
 34 35  2  0
 35 36  1  0
 36 37  2  0
 36 38  1  0
 35 39  1  0
 33 40  1  0
 31 41  1  0
 30 42  1  0
 30 43  1  0
 29 44  1  1
 28 45  1  0
 28 46  1  0
  8 47  1  0
 47 48  2  0
 48 49  1  0
 49 50  1  0
 49 51  2  0
 51 52  1  0
 52 53  2  0
 53 54  1  0
 54 55  2  0
 52 56  1  0
 51 57  1  0
 48 58  1  0
  7 59  1  0
  7 60  1  0
  5 61  1  0
  5 62  1  0
  2 63  1  0
  1 64  1  0
  1 65  1  0
  1 66  1  0
 54  6  1  0
 29  8  1  0
 37 32  1  0
 53 47  1  0
 21 12  1  0
 21 16  1  0
M  END
>  <cnnaffinities>  (89) 
[6.56801, 6.40906]

>  <score>  (89) 
6.56801

>  <index>  (89) 
91

>  <Smiles>  (89) 
C(N(C(=O)C(N1C([C@@]2(C(=O)N(c3c(nc(c4c(c(c(c(c34)[H])[H])[H])[H])[H])[H])C([C@@]2(C(N(c2c(nc(c(n2)[H])[H])[H])[H])([H])[H])[H])([H])[H])c2c(c(Cl)c(c(c2C1=O)[H])[H])[H])([H])[H])([H])[H])[H])([H])([H])[H]

>  <h>  (89) 
<NA>

>  <Training>  (89) 
True

>  <Success>  (89) 
True

>  <enamine_searched>  (89) 
False

>  <enamine_id>  (89) 
nan

$$$$

     RDKit          3D

 60 65  0  0  0  0  0  0  0  0999 V2000
   -8.0092   -6.3801  -23.6475 C   0  0  0  0  0  0  0  0  0  0  0  0
   -8.2354   -5.2629  -22.8278 O   0  0  0  0  0  0  0  0  0  0  0  0
   -8.2701   -4.0647  -23.5658 C   0  0  0  0  0  0  0  0  0  0  0  0
   -8.4788   -2.9294  -22.5815 C   0  0  1  0  0  0  0  0  0  0  0  0
   -7.3206   -2.7350  -21.6019 C   0  0  0  0  0  0  0  0  0  0  0  0
   -7.4021   -1.3267  -21.2836 N   0  0  0  0  0  0  0  0  0  0  0  0
   -6.6195   -0.7447  -20.2618 C   0  0  0  0  0  0  0  0  0  0  0  0
   -6.9380   -0.9980  -18.9541 C   0  0  0  0  0  0  0  0  0  0  0  0
   -6.2698   -0.4922  -17.8930 N   0  0  0  0  0  0  0  0  0  0  0  0
   -5.2215    0.2533  -18.1395 C   0  0  0  0  0  0  0  0  0  0  0  0
   -4.7522    0.5532  -19.4487 C   0  0  0  0  0  0  0  0  0  0  0  0
   -3.6016    1.3577  -19.6556 C   0  0  0  0  0  0  0  0  0  0  0  0
   -3.1616    1.6235  -20.9221 C   0  0  0  0  0  0  0  0  0  0  0  0
   -3.8454    1.0889  -22.0390 C   0  0  0  0  0  0  0  0  0  0  0  0
   -4.9627    0.3093  -21.8670 C   0  0  0  0  0  0  0  0  0  0  0  0
   -5.4581    0.0370  -20.5583 C   0  0  0  0  0  0  0  0  0  0  0  0
   -5.4772   -0.0987  -22.7344 H   0  0  0  0  0  0  0  0  0  0  0  0
   -3.4848    1.3065  -23.0399 H   0  0  0  0  0  0  0  0  0  0  0  0
   -2.2891    2.2534  -21.0787 H   0  0  0  0  0  0  0  0  0  0  0  0
   -3.0901    1.7574  -18.7842 H   0  0  0  0  0  0  0  0  0  0  0  0
   -4.6851    0.6595  -17.2808 H   0  0  0  0  0  0  0  0  0  0  0  0
   -7.7922   -1.6341  -18.7228 H   0  0  0  0  0  0  0  0  0  0  0  0
   -8.2187   -0.5901  -22.1172 C   0  0  0  0  0  0  0  0  0  0  0  0
   -8.3998    0.6014  -22.0173 O   0  0  0  0  0  0  0  0  0  0  0  0
   -8.7455   -1.5295  -23.2133 C   0  0  1  0  0  0  0  0  0  0  0  0
   -7.8824   -1.2157  -24.4784 C   0  0  0  0  0  0  0  0  0  0  0  0
   -8.4265   -1.7612  -25.7212 N   0  0  0  0  0  0  0  0  0  0  0  0
   -7.5772   -2.1886  -26.8386 C   0  0  0  0  0  0  0  0  0  0  0  0
   -7.4046   -3.6839  -26.9473 C   0  0  0  0  0  0  0  0  0  0  0  0
   -6.2328   -4.4411  -26.7345 C   0  0  0  0  0  0  0  0  0  0  0  0
   -6.4181   -5.7372  -26.9778 N   0  0  0  0  0  0  0  0  0  0  0  0
   -7.7051   -5.8117  -27.3336 N   0  0  0  0  0  0  0  0  0  0  0  0
   -8.3465   -4.6184  -27.3331 C   0  0  0  0  0  0  0  0  0  0  0  0
   -9.3891   -4.5270  -27.6177 H   0  0  0  0  0  0  0  0  0  0  0  0
   -8.0870   -6.7111  -27.5654 H   0  0  0  0  0  0  0  0  0  0  0  0
   -5.2568   -4.1007  -26.4066 H   0  0  0  0  0  0  0  0  0  0  0  0
   -6.6015   -1.7061  -26.7470 H   0  0  0  0  0  0  0  0  0  0  0  0
   -8.0675   -1.8198  -27.7485 H   0  0  0  0  0  0  0  0  0  0  0  0
   -9.7680   -1.8142  -25.9726 C   0  0  0  0  0  0  0  0  0  0  0  0
  -10.2196   -2.1388  -27.0662 O   0  0  0  0  0  0  0  0  0  0  0  0
  -10.6781   -1.4921  -24.8386 C   0  0  0  0  0  0  0  0  0  0  0  0
  -12.0311   -1.4150  -25.1530 C   0  0  0  0  0  0  0  0  0  0  0  0
  -12.9711   -1.2904  -24.1525 C   0  0  0  0  0  0  0  0  0  0  0  0
  -12.5312   -1.2722  -22.8325 C   0  0  0  0  0  0  0  0  0  0  0  0
  -13.7625   -1.3961  -21.6030 Cl  0  0  0  0  0  0  0  0  0  0  0  0
  -11.1838   -1.2516  -22.5052 C   0  0  0  0  0  0  0  0  0  0  0  0
  -10.2197   -1.3605  -23.5247 C   0  0  0  0  0  0  0  0  0  0  0  0
  -10.9160   -1.1580  -21.4594 H   0  0  0  0  0  0  0  0  0  0  0  0
  -14.0350   -1.2683  -24.3459 H   0  0  0  0  0  0  0  0  0  0  0  0
  -12.2907   -1.5205  -26.2026 H   0  0  0  0  0  0  0  0  0  0  0  0
   -6.8659   -1.6052  -24.3245 H   0  0  0  0  0  0  0  0  0  0  0  0
   -7.7855   -0.1232  -24.5484 H   0  0  0  0  0  0  0  0  0  0  0  0
   -7.4397   -3.3212  -20.6944 H   0  0  0  0  0  0  0  0  0  0  0  0
   -6.3471   -3.0019  -22.0366 H   0  0  0  0  0  0  0  0  0  0  0  0
   -9.3658   -3.1784  -21.9868 H   0  0  0  0  0  0  0  0  0  0  0  0
   -7.3299   -3.9213  -24.1240 H   0  0  0  0  0  0  0  0  0  0  0  0
   -9.0963   -4.0774  -24.2963 H   0  0  0  0  0  0  0  0  0  0  0  0
   -7.9974   -7.2677  -23.0079 H   0  0  0  0  0  0  0  0  0  0  0  0
   -7.0460   -6.3025  -24.1726 H   0  0  0  0  0  0  0  0  0  0  0  0
   -8.8102   -6.4988  -24.3937 H   0  0  0  0  0  0  0  0  0  0  0  0
  1  2  1  0
  2  3  1  0
  3  4  1  0
  4  5  1  0
  5  6  1  0
  6  7  1  0
  7  8  2  0
  8  9  1  0
  9 10  2  0
 10 11  1  0
 11 12  2  0
 12 13  1  0
 13 14  2  0
 14 15  1  0
 15 16  2  0
 15 17  1  0
 14 18  1  0
 13 19  1  0
 12 20  1  0
 10 21  1  0
  8 22  1  0
  6 23  1  0
 23 24  2  0
 23 25  1  0
 25 26  1  6
 26 27  1  0
 27 28  1  0
 28 29  1  0
 29 30  1  0
 30 31  2  0
 31 32  1  0
 32 33  1  0
 33 34  1  0
 32 35  1  0
 30 36  1  0
 28 37  1  0
 28 38  1  0
 27 39  1  0
 39 40  2  0
 39 41  1  0
 41 42  2  0
 42 43  1  0
 43 44  2  0
 44 45  1  0
 44 46  1  0
 46 47  2  0
 46 48  1  0
 43 49  1  0
 42 50  1  0
 26 51  1  0
 26 52  1  0
  5 53  1  0
  5 54  1  0
  4 55  1  1
  3 56  1  0
  3 57  1  0
  1 58  1  0
  1 59  1  0
  1 60  1  0
 25  4  1  0
 33 29  2  0
 47 41  1  0
 16  7  1  0
 47 25  1  0
 16 11  1  0
M  END
>  <cnnaffinities>  (90) 
[6.43946]

>  <score>  (90) 
6.43946

>  <index>  (90) 
92

>  <Smiles>  (90) 
C(OC([C@]1(C(N(c2c(nc(c3c(c(c(c(c23)[H])[H])[H])[H])[H])[H])C(=O)[C@]21C(N(C(c1c(nn(c1[H])[H])[H])([H])[H])C(=O)c1c(c(c(Cl)c(c21)[H])[H])[H])([H])[H])([H])[H])[H])([H])[H])([H])([H])[H]

>  <h>  (90) 
<NA>

>  <Training>  (90) 
True

>  <Success>  (90) 
True

>  <enamine_searched>  (90) 
False

>  <enamine_id>  (90) 
nan

$$$$

     RDKit          3D

 62 67  0  0  0  0  0  0  0  0999 V2000
  -11.1506    3.0551  -22.6767 C   0  0  0  0  0  0  0  0  0  0  0  0
  -10.3747    1.8567  -22.1428 C   0  0  0  0  0  0  0  0  0  0  0  0
   -8.9931    1.8465  -22.6091 N   0  0  0  0  0  0  0  0  0  0  0  0
   -8.0899    2.5758  -21.9434 N   0  0  0  0  0  0  0  0  0  0  0  0
   -6.9555    2.4384  -22.6248 C   0  0  0  0  0  0  0  0  0  0  0  0
   -7.1368    1.6309  -23.7731 C   0  0  0  0  0  0  0  0  0  0  0  0
   -8.4690    1.2801  -23.7287 C   0  0  0  0  0  0  0  0  0  0  0  0
   -9.3895    0.6537  -24.7215 C   0  0  0  0  0  0  0  0  0  0  0  0
  -10.0216   -0.5872  -24.3017 N   0  0  0  0  0  0  0  0  0  0  0  0
   -9.2015   -1.7684  -24.1437 C   0  0  0  0  0  0  0  0  0  0  0  0
   -9.3958   -2.3826  -22.7349 C   0  0  2  0  0  0  0  0  0  0  0  0
   -8.8616   -1.4075  -21.6530 C   0  0  0  0  0  0  0  0  0  0  0  0
   -9.4862   -0.5369  -21.0875 O   0  0  0  0  0  0  0  0  0  0  0  0
   -7.5354   -1.6964  -21.3984 N   0  0  0  0  0  0  0  0  0  0  0  0
   -6.8396   -1.0301  -20.3601 C   0  0  0  0  0  0  0  0  0  0  0  0
   -7.3695   -0.9520  -19.0937 C   0  0  0  0  0  0  0  0  0  0  0  0
   -6.7965   -0.2856  -18.0632 N   0  0  0  0  0  0  0  0  0  0  0  0
   -5.6812    0.3609  -18.3042 C   0  0  0  0  0  0  0  0  0  0  0  0
   -5.0294    0.3796  -19.5699 C   0  0  0  0  0  0  0  0  0  0  0  0
   -3.8590    1.1492  -19.8160 C   0  0  0  0  0  0  0  0  0  0  0  0
   -3.2672    1.1278  -21.0494 C   0  0  0  0  0  0  0  0  0  0  0  0
   -3.7971    0.3337  -22.0899 C   0  0  0  0  0  0  0  0  0  0  0  0
   -4.9367   -0.4056  -21.8810 C   0  0  0  0  0  0  0  0  0  0  0  0
   -5.5928   -0.3796  -20.6223 C   0  0  0  0  0  0  0  0  0  0  0  0
   -5.3656   -0.9774  -22.6970 H   0  0  0  0  0  0  0  0  0  0  0  0
   -3.3243    0.3284  -23.0685 H   0  0  0  0  0  0  0  0  0  0  0  0
   -2.3912    1.7404  -21.2431 H   0  0  0  0  0  0  0  0  0  0  0  0
   -3.4738    1.7860  -19.0218 H   0  0  0  0  0  0  0  0  0  0  0  0
   -5.2377    0.9129  -17.4735 H   0  0  0  0  0  0  0  0  0  0  0  0
   -8.3111   -1.4451  -18.8680 H   0  0  0  0  0  0  0  0  0  0  0  0
   -7.1064   -2.9123  -22.0782 C   0  0  0  0  0  0  0  0  0  0  0  0
   -8.4379   -3.5753  -22.4756 C   0  0  2  0  0  0  0  0  0  0  0  0
   -8.2909   -4.6222  -23.5734 C   0  0  0  0  0  0  0  0  0  0  0  0
   -9.2520   -5.0831  -23.8244 H   0  0  0  0  0  0  0  0  0  0  0  0
   -7.6064   -5.4189  -23.2595 H   0  0  0  0  0  0  0  0  0  0  0  0
   -7.8825   -4.1883  -24.4948 H   0  0  0  0  0  0  0  0  0  0  0  0
   -8.7885   -4.0542  -21.5554 H   0  0  0  0  0  0  0  0  0  0  0  0
   -6.5066   -2.6914  -22.9734 H   0  0  0  0  0  0  0  0  0  0  0  0
   -6.5070   -3.5377  -21.4109 H   0  0  0  0  0  0  0  0  0  0  0  0
  -10.8827   -2.6247  -22.5433 C   0  0  0  0  0  0  0  0  0  0  0  0
  -11.3789   -3.5941  -21.6613 C   0  0  0  0  0  0  0  0  0  0  0  0
  -12.7168   -3.5810  -21.3177 C   0  0  0  0  0  0  0  0  0  0  0  0
  -13.1492   -4.3589  -20.3104 F   0  0  0  0  0  0  0  0  0  0  0  0
  -13.6454   -2.7573  -21.9383 C   0  0  0  0  0  0  0  0  0  0  0  0
  -13.1852   -1.8615  -22.8805 C   0  0  0  0  0  0  0  0  0  0  0  0
  -11.8138   -1.7701  -23.1491 C   0  0  0  0  0  0  0  0  0  0  0  0
  -11.3647   -0.6558  -24.0426 C   0  0  0  0  0  0  0  0  0  0  0  0
  -12.1865    0.1714  -24.4024 O   0  0  0  0  0  0  0  0  0  0  0  0
  -13.8632   -1.1946  -23.4065 H   0  0  0  0  0  0  0  0  0  0  0  0
  -14.6855   -2.8193  -21.6402 H   0  0  0  0  0  0  0  0  0  0  0  0
  -10.7511   -4.3257  -21.1718 H   0  0  0  0  0  0  0  0  0  0  0  0
   -9.4844   -2.5106  -24.9056 H   0  0  0  0  0  0  0  0  0  0  0  0
   -8.1590   -1.4840  -24.3055 H   0  0  0  0  0  0  0  0  0  0  0  0
   -8.8945    0.5391  -25.6914 H   0  0  0  0  0  0  0  0  0  0  0  0
  -10.1778    1.3746  -24.8337 H   0  0  0  0  0  0  0  0  0  0  0  0
   -6.4256    1.3288  -24.5374 H   0  0  0  0  0  0  0  0  0  0  0  0
   -6.0642    2.9455  -22.2831 H   0  0  0  0  0  0  0  0  0  0  0  0
  -10.8537    0.9190  -22.4076 H   0  0  0  0  0  0  0  0  0  0  0  0
  -10.3215    1.8583  -21.0577 H   0  0  0  0  0  0  0  0  0  0  0  0
  -11.4810    2.8903  -23.7061 H   0  0  0  0  0  0  0  0  0  0  0  0
  -10.5097    3.9403  -22.6604 H   0  0  0  0  0  0  0  0  0  0  0  0
  -12.0358    3.2700  -22.0711 H   0  0  0  0  0  0  0  0  0  0  0  0
  1  2  1  0
  2  3  1  0
  3  4  1  0
  4  5  2  0
  5  6  1  0
  6  7  2  0
  7  8  1  0
  8  9  1  0
  9 10  1  0
 11 10  1  6
 11 12  1  0
 12 13  2  0
 12 14  1  0
 14 15  1  0
 15 16  2  0
 16 17  1  0
 17 18  2  0
 18 19  1  0
 19 20  2  0
 20 21  1  0
 21 22  2  0
 22 23  1  0
 23 24  2  0
 23 25  1  0
 22 26  1  0
 21 27  1  0
 20 28  1  0
 18 29  1  0
 16 30  1  0
 14 31  1  0
 31 32  1  0
 32 33  1  0
 33 34  1  0
 33 35  1  0
 33 36  1  0
 32 37  1  1
 31 38  1  0
 31 39  1  0
 11 40  1  0
 40 41  2  0
 41 42  1  0
 42 43  1  0
 42 44  2  0
 44 45  1  0
 45 46  2  0
 46 47  1  0
 47 48  2  0
 45 49  1  0
 44 50  1  0
 41 51  1  0
 10 52  1  0
 10 53  1  0
  8 54  1  0
  8 55  1  0
  6 56  1  0
  5 57  1  0
  2 58  1  0
  2 59  1  0
  1 60  1  0
  1 61  1  0
  1 62  1  0
  7  3  1  0
 47  9  1  0
 32 11  1  0
 46 40  1  0
 24 15  1  0
 24 19  1  0
M  END
>  <cnnaffinities>  (91) 
[6.985]

>  <score>  (91) 
6.985

>  <index>  (91) 
93

>  <Smiles>  (91) 
C(C(n1nc(c(c1C(N1C([C@@]2(C(=O)N(c3c(nc(c4c(c(c(c(c34)[H])[H])[H])[H])[H])[H])C([C@@]2(C([H])([H])[H])[H])([H])[H])c2c(c(F)c(c(c2C1=O)[H])[H])[H])([H])[H])([H])[H])[H])[H])([H])[H])([H])([H])[H]

>  <h>  (91) 
<NA>

>  <Training>  (91) 
True

>  <Success>  (91) 
True

>  <enamine_searched>  (91) 
False

>  <enamine_id>  (91) 
nan

$$$$

     RDKit          3D

 66 71  0  0  0  0  0  0  0  0999 V2000
   -7.8265   -6.0303  -26.6721 C   0  0  0  0  0  0  0  0  0  0  0  0
   -8.0031   -4.6154  -26.9489 N   0  0  0  0  0  0  0  0  0  0  0  0
   -7.0776   -3.7072  -26.5681 C   0  0  0  0  0  0  0  0  0  0  0  0
   -6.0389   -4.0085  -25.9883 O   0  0  0  0  0  0  0  0  0  0  0  0
   -7.4422   -2.2426  -26.8186 C   0  0  0  0  0  0  0  0  0  0  0  0
   -8.3610   -1.7657  -25.7917 N   0  0  0  0  0  0  0  0  0  0  0  0
   -7.8371   -1.3127  -24.5089 C   0  0  0  0  0  0  0  0  0  0  0  0
   -8.7454   -1.5814  -23.2645 C   0  0  2  0  0  0  0  0  0  0  0  0
   -8.2424   -0.6082  -22.1817 C   0  0  0  0  0  0  0  0  0  0  0  0
   -8.4622    0.5809  -22.1028 O   0  0  0  0  0  0  0  0  0  0  0  0
   -7.3823   -1.3069  -21.3522 N   0  0  0  0  0  0  0  0  0  0  0  0
   -6.6281   -0.7071  -20.3127 C   0  0  0  0  0  0  0  0  0  0  0  0
   -6.9663   -0.9459  -19.0044 C   0  0  0  0  0  0  0  0  0  0  0  0
   -6.3104   -0.4422  -17.9315 N   0  0  0  0  0  0  0  0  0  0  0  0
   -5.2504    0.2918  -18.1641 C   0  0  0  0  0  0  0  0  0  0  0  0
   -4.7585    0.5865  -19.4663 C   0  0  0  0  0  0  0  0  0  0  0  0
   -3.5915    1.3730  -19.6601 C   0  0  0  0  0  0  0  0  0  0  0  0
   -3.1304    1.6295  -20.9217 C   0  0  0  0  0  0  0  0  0  0  0  0
   -3.8086    1.1061  -22.0454 C   0  0  0  0  0  0  0  0  0  0  0  0
   -4.9397    0.3452  -21.8829 C   0  0  0  0  0  0  0  0  0  0  0  0
   -5.4553    0.0727  -20.5846 C   0  0  0  0  0  0  0  0  0  0  0  0
   -5.4467   -0.0588  -22.7546 H   0  0  0  0  0  0  0  0  0  0  0  0
   -3.4317    1.3132  -23.0429 H   0  0  0  0  0  0  0  0  0  0  0  0
   -2.2471    2.2452  -21.0696 H   0  0  0  0  0  0  0  0  0  0  0  0
   -3.0842    1.7740  -18.7865 H   0  0  0  0  0  0  0  0  0  0  0  0
   -4.7179    0.6838  -17.2973 H   0  0  0  0  0  0  0  0  0  0  0  0
   -7.8328   -1.5675  -18.7819 H   0  0  0  0  0  0  0  0  0  0  0  0
   -7.3113   -2.7312  -21.6216 C   0  0  0  0  0  0  0  0  0  0  0  0
   -8.5193   -2.9493  -22.5423 C   0  0  2  0  0  0  0  0  0  0  0  0
   -8.4669   -4.1477  -23.4919 C   0  0  0  0  0  0  0  0  0  0  0  0
   -8.3771   -5.4452  -22.8410 N   0  0  0  0  0  0  0  0  0  0  0  0
   -7.1787   -5.9512  -22.4108 C   0  0  0  0  0  0  0  0  0  0  0  0
   -5.9631   -5.6661  -23.0620 C   0  0  0  0  0  0  0  0  0  0  0  0
   -4.8198   -6.1376  -22.4509 C   0  0  0  0  0  0  0  0  0  0  0  0
   -4.8371   -6.8439  -21.3119 N   0  0  0  0  0  0  0  0  0  0  0  0
   -6.0456   -7.1051  -20.8348 C   0  0  0  0  0  0  0  0  0  0  0  0
   -7.2219   -6.7496  -21.3340 N   0  0  0  0  0  0  0  0  0  0  0  0
   -6.0788   -7.6806  -19.9107 H   0  0  0  0  0  0  0  0  0  0  0  0
   -3.8309   -5.9324  -22.8693 H   0  0  0  0  0  0  0  0  0  0  0  0
   -5.9375   -5.1096  -24.0007 H   0  0  0  0  0  0  0  0  0  0  0  0
   -9.1423   -5.6590  -22.2166 H   0  0  0  0  0  0  0  0  0  0  0  0
   -9.3844   -4.1372  -24.0957 H   0  0  0  0  0  0  0  0  0  0  0  0
   -7.6198   -4.0365  -24.1652 H   0  0  0  0  0  0  0  0  0  0  0  0
   -9.3920   -3.0873  -21.8839 H   0  0  0  0  0  0  0  0  0  0  0  0
   -7.3814   -3.2789  -20.6803 H   0  0  0  0  0  0  0  0  0  0  0  0
   -6.3481   -2.9985  -22.0855 H   0  0  0  0  0  0  0  0  0  0  0  0
  -10.2015   -1.4130  -23.6346 C   0  0  0  0  0  0  0  0  0  0  0  0
  -11.1769   -1.3330  -22.6266 C   0  0  0  0  0  0  0  0  0  0  0  0
  -12.5243   -1.3361  -22.9659 C   0  0  0  0  0  0  0  0  0  0  0  0
  -13.7707   -1.3288  -21.7465 Cl  0  0  0  0  0  0  0  0  0  0  0  0
  -12.9344   -1.4329  -24.2951 C   0  0  0  0  0  0  0  0  0  0  0  0
  -11.9796   -1.5472  -25.2817 C   0  0  0  0  0  0  0  0  0  0  0  0
  -10.6269   -1.5633  -24.9589 C   0  0  0  0  0  0  0  0  0  0  0  0
   -9.6819   -1.9361  -26.0457 C   0  0  0  0  0  0  0  0  0  0  0  0
  -10.0820   -2.4351  -27.1014 O   0  0  0  0  0  0  0  0  0  0  0  0
  -12.2485   -1.6839  -26.3280 H   0  0  0  0  0  0  0  0  0  0  0  0
  -13.9961   -1.4846  -24.5224 H   0  0  0  0  0  0  0  0  0  0  0  0
  -10.8803   -1.3016  -21.5829 H   0  0  0  0  0  0  0  0  0  0  0  0
   -7.6756   -0.2297  -24.5561 H   0  0  0  0  0  0  0  0  0  0  0  0
   -6.8637   -1.8051  -24.3792 H   0  0  0  0  0  0  0  0  0  0  0  0
   -6.5285   -1.6468  -26.8291 H   0  0  0  0  0  0  0  0  0  0  0  0
   -7.9515   -2.1481  -27.7769 H   0  0  0  0  0  0  0  0  0  0  0  0
   -8.8932   -4.2750  -27.2870 H   0  0  0  0  0  0  0  0  0  0  0  0
   -7.5966   -6.1957  -25.6095 H   0  0  0  0  0  0  0  0  0  0  0  0
   -8.7488   -6.5619  -26.9184 H   0  0  0  0  0  0  0  0  0  0  0  0
   -7.0141   -6.4479  -27.2760 H   0  0  0  0  0  0  0  0  0  0  0  0
  1  2  1  0
  2  3  1  0
  3  4  2  0
  3  5  1  0
  5  6  1  0
  6  7  1  0
  8  7  1  6
  8  9  1  0
  9 10  2  0
  9 11  1  0
 11 12  1  0
 12 13  2  0
 13 14  1  0
 14 15  2  0
 15 16  1  0
 16 17  2  0
 17 18  1  0
 18 19  2  0
 19 20  1  0
 20 21  2  0
 20 22  1  0
 19 23  1  0
 18 24  1  0
 17 25  1  0
 15 26  1  0
 13 27  1  0
 11 28  1  0
 28 29  1  0
 29 30  1  0
 30 31  1  0
 31 32  1  0
 32 33  2  0
 33 34  1  0
 34 35  2  0
 35 36  1  0
 36 37  2  0
 36 38  1  0
 34 39  1  0
 33 40  1  0
 31 41  1  0
 30 42  1  0
 30 43  1  0
 29 44  1  1
 28 45  1  0
 28 46  1  0
  8 47  1  0
 47 48  2  0
 48 49  1  0
 49 50  1  0
 49 51  2  0
 51 52  1  0
 52 53  2  0
 53 54  1  0
 54 55  2  0
 52 56  1  0
 51 57  1  0
 48 58  1  0
  7 59  1  0
  7 60  1  0
  5 61  1  0
  5 62  1  0
  2 63  1  0
  1 64  1  0
  1 65  1  0
  1 66  1  0
 54  6  1  0
 29  8  1  0
 37 32  1  0
 53 47  1  0
 21 12  1  0
 21 16  1  0
M  END
>  <cnnaffinities>  (92) 
[6.43284]

>  <score>  (92) 
6.43284

>  <index>  (92) 
95

>  <Smiles>  (92) 
C(N(C(=O)C(N1C([C@@]2(C(=O)N(c3c(nc(c4c(c(c(c(c34)[H])[H])[H])[H])[H])[H])C([C@@]2(C(N(c2c(c(nc(n2)[H])[H])[H])[H])([H])[H])[H])([H])[H])c2c(c(Cl)c(c(c2C1=O)[H])[H])[H])([H])[H])([H])[H])[H])([H])([H])[H]

>  <h>  (92) 
<NA>

>  <Training>  (92) 
True

>  <Success>  (92) 
True

>  <enamine_searched>  (92) 
False

>  <enamine_id>  (92) 
nan

$$$$

     RDKit          3D

 66 70  0  0  0  0  0  0  0  0999 V2000
   -7.7270   -0.2496  -29.8105 C   0  0  0  0  0  0  0  0  0  0  0  0
   -7.9668   -1.2757  -28.8232 N   0  0  0  0  0  0  0  0  0  0  0  0
   -7.1533   -1.3530  -27.7339 C   0  0  0  0  0  0  0  0  0  0  0  0
   -6.1912   -0.6292  -27.5412 O   0  0  0  0  0  0  0  0  0  0  0  0
   -7.5408   -2.4463  -26.7354 C   0  0  0  0  0  0  0  0  0  0  0  0
   -8.4307   -1.9344  -25.7055 N   0  0  0  0  0  0  0  0  0  0  0  0
   -7.9044   -1.2470  -24.5357 C   0  0  0  0  0  0  0  0  0  0  0  0
   -8.7387   -1.5515  -23.2650 C   0  0  2  0  0  0  0  0  0  0  0  0
   -8.2441   -0.5802  -22.1800 C   0  0  0  0  0  0  0  0  0  0  0  0
   -8.4772    0.6054  -22.0958 O   0  0  0  0  0  0  0  0  0  0  0  0
   -7.4181   -1.2798  -21.3188 N   0  0  0  0  0  0  0  0  0  0  0  0
   -6.6418   -0.6844  -20.2898 C   0  0  0  0  0  0  0  0  0  0  0  0
   -6.9564   -0.9480  -18.9819 C   0  0  0  0  0  0  0  0  0  0  0  0
   -6.2857   -0.4573  -17.9137 N   0  0  0  0  0  0  0  0  0  0  0  0
   -5.2323    0.2837  -18.1519 C   0  0  0  0  0  0  0  0  0  0  0  0
   -4.7522    0.5905  -19.4553 C   0  0  0  0  0  0  0  0  0  0  0  0
   -3.5873    1.3781  -19.6563 C   0  0  0  0  0  0  0  0  0  0  0  0
   -3.1363    1.6344  -20.9209 C   0  0  0  0  0  0  0  0  0  0  0  0
   -3.8180    1.1042  -22.0389 C   0  0  0  0  0  0  0  0  0  0  0  0
   -4.9474    0.3428  -21.8692 C   0  0  0  0  0  0  0  0  0  0  0  0
   -5.4607    0.0825  -20.5688 C   0  0  0  0  0  0  0  0  0  0  0  0
   -5.4541   -0.0733  -22.7345 H   0  0  0  0  0  0  0  0  0  0  0  0
   -3.4482    1.3108  -23.0383 H   0  0  0  0  0  0  0  0  0  0  0  0
   -2.2578    2.2545  -21.0753 H   0  0  0  0  0  0  0  0  0  0  0  0
   -3.0746    1.7787  -18.7861 H   0  0  0  0  0  0  0  0  0  0  0  0
   -4.6993    0.6684  -17.2840 H   0  0  0  0  0  0  0  0  0  0  0  0
   -7.8131   -1.5827  -18.7578 H   0  0  0  0  0  0  0  0  0  0  0  0
   -7.3002   -2.6950  -21.6129 C   0  0  0  0  0  0  0  0  0  0  0  0
   -8.4378   -2.9411  -22.6097 C   0  0  2  0  0  0  0  0  0  0  0  0
   -8.1769   -4.0816  -23.5859 C   0  0  0  0  0  0  0  0  0  0  0  0
   -7.7701   -5.2370  -22.8827 O   0  0  0  0  0  0  0  0  0  0  0  0
   -7.4707   -6.3179  -23.7561 C   0  0  0  0  0  0  0  0  0  0  0  0
   -6.5479   -7.2549  -22.9968 C   0  0  0  0  0  0  0  0  0  0  0  0
   -5.5729   -6.7885  -22.8264 H   0  0  0  0  0  0  0  0  0  0  0  0
   -6.9954   -7.5116  -22.0305 H   0  0  0  0  0  0  0  0  0  0  0  0
   -6.3748   -8.1726  -23.5649 H   0  0  0  0  0  0  0  0  0  0  0  0
   -8.7436   -7.0116  -24.2364 C   0  0  0  0  0  0  0  0  0  0  0  0
   -9.0739   -7.7644  -23.5088 H   0  0  0  0  0  0  0  0  0  0  0  0
   -8.5659   -7.5081  -25.1941 H   0  0  0  0  0  0  0  0  0  0  0  0
   -9.5309   -6.2704  -24.3990 H   0  0  0  0  0  0  0  0  0  0  0  0
   -6.9273   -5.9235  -24.6327 H   0  0  0  0  0  0  0  0  0  0  0  0
   -9.0951   -4.2643  -24.1632 H   0  0  0  0  0  0  0  0  0  0  0  0
   -7.4025   -3.8093  -24.3146 H   0  0  0  0  0  0  0  0  0  0  0  0
   -9.3313   -3.2147  -22.0320 H   0  0  0  0  0  0  0  0  0  0  0  0
   -7.4323   -3.2764  -20.6990 H   0  0  0  0  0  0  0  0  0  0  0  0
   -6.3068   -2.9408  -22.0210 H   0  0  0  0  0  0  0  0  0  0  0  0
  -10.2100   -1.3941  -23.5981 C   0  0  0  0  0  0  0  0  0  0  0  0
  -11.1697   -1.3193  -22.5779 C   0  0  0  0  0  0  0  0  0  0  0  0
  -12.5172   -1.3110  -22.9069 C   0  0  0  0  0  0  0  0  0  0  0  0
  -13.7421   -1.3407  -21.6777 Cl  0  0  0  0  0  0  0  0  0  0  0  0
  -12.9574   -1.3941  -24.2259 C   0  0  0  0  0  0  0  0  0  0  0  0
  -12.0141   -1.4855  -25.2227 C   0  0  0  0  0  0  0  0  0  0  0  0
  -10.6616   -1.4959  -24.9186 C   0  0  0  0  0  0  0  0  0  0  0  0
   -9.7389   -1.7957  -26.0452 C   0  0  0  0  0  0  0  0  0  0  0  0
  -10.1456   -1.9687  -27.1954 O   0  0  0  0  0  0  0  0  0  0  0  0
  -12.2743   -1.6158  -26.2649 H   0  0  0  0  0  0  0  0  0  0  0  0
  -14.0231   -1.4458  -24.4239 H   0  0  0  0  0  0  0  0  0  0  0  0
  -10.8635   -1.3205  -21.5341 H   0  0  0  0  0  0  0  0  0  0  0  0
   -6.8582   -1.5465  -24.3843 H   0  0  0  0  0  0  0  0  0  0  0  0
   -7.9299   -0.1579  -24.6860 H   0  0  0  0  0  0  0  0  0  0  0  0
   -8.0641   -3.2603  -27.2478 H   0  0  0  0  0  0  0  0  0  0  0  0
   -6.6235   -2.8302  -26.2753 H   0  0  0  0  0  0  0  0  0  0  0  0
   -8.9194   -1.5996  -28.6849 H   0  0  0  0  0  0  0  0  0  0  0  0
   -6.6936   -0.3214  -30.1549 H   0  0  0  0  0  0  0  0  0  0  0  0
   -7.8815    0.7584  -29.4083 H   0  0  0  0  0  0  0  0  0  0  0  0
   -8.3959   -0.4144  -30.6583 H   0  0  0  0  0  0  0  0  0  0  0  0
  1  2  1  0
  2  3  1  0
  3  4  2  0
  3  5  1  0
  5  6  1  0
  6  7  1  0
  8  7  1  6
  8  9  1  0
  9 10  2  0
  9 11  1  0
 11 12  1  0
 12 13  2  0
 13 14  1  0
 14 15  2  0
 15 16  1  0
 16 17  2  0
 17 18  1  0
 18 19  2  0
 19 20  1  0
 20 21  2  0
 20 22  1  0
 19 23  1  0
 18 24  1  0
 17 25  1  0
 15 26  1  0
 13 27  1  0
 11 28  1  0
 28 29  1  0
 29 30  1  0
 30 31  1  0
 31 32  1  0
 32 33  1  0
 33 34  1  0
 33 35  1  0
 33 36  1  0
 32 37  1  0
 37 38  1  0
 37 39  1  0
 37 40  1  0
 32 41  1  0
 30 42  1  0
 30 43  1  0
 29 44  1  1
 28 45  1  0
 28 46  1  0
  8 47  1  0
 47 48  2  0
 48 49  1  0
 49 50  1  0
 49 51  2  0
 51 52  1  0
 52 53  2  0
 53 54  1  0
 54 55  2  0
 52 56  1  0
 51 57  1  0
 48 58  1  0
  7 59  1  0
  7 60  1  0
  5 61  1  0
  5 62  1  0
  2 63  1  0
  1 64  1  0
  1 65  1  0
  1 66  1  0
 54  6  1  0
 29  8  1  0
 53 47  1  0
 21 12  1  0
 21 16  1  0
M  END
>  <cnnaffinities>  (93) 
[6.49246, 6.53446, 6.54003, 6.61844, 6.61227]

>  <score>  (93) 
6.49246

>  <index>  (93) 
96

>  <Smiles>  (93) 
C(N(C(=O)C(N1C([C@@]2(C(=O)N(c3c(nc(c4c(c(c(c(c34)[H])[H])[H])[H])[H])[H])C([C@@]2(C(OC(C([H])([H])[H])(C([H])([H])[H])[H])([H])[H])[H])([H])[H])c2c(c(Cl)c(c(c2C1=O)[H])[H])[H])([H])[H])([H])[H])[H])([H])([H])[H]

>  <h>  (93) 
<NA>

>  <Training>  (93) 
True

>  <Success>  (93) 
True

>  <enamine_searched>  (93) 
False

>  <enamine_id>  (93) 
nan

$$$$

     RDKit          3D

 40 43  0  0  0  0  0  0  0  0999 V2000
  -12.7010   -3.6949  -21.0851 C   0  0  0  0  0  0  0  0  0  0  0  0
  -11.5586   -2.8472  -21.6873 C   0  0  2  0  0  0  0  0  0  0  0  0
  -12.0280   -2.2875  -23.0216 C   0  0  0  0  0  0  0  0  0  0  0  0
  -11.1179   -1.3401  -23.5312 O   0  0  0  0  0  0  0  0  0  0  0  0
   -9.8434   -1.8900  -23.7487 C   0  0  0  0  0  0  0  0  0  0  0  0
   -9.1777   -2.4237  -22.4734 C   0  0  1  0  0  0  0  0  0  0  0  0
  -10.1465   -3.4365  -21.8072 C   0  0  0  0  0  0  0  0  0  0  0  0
  -10.1517   -4.3407  -22.4280 H   0  0  0  0  0  0  0  0  0  0  0  0
   -9.7379   -3.7179  -20.8287 H   0  0  0  0  0  0  0  0  0  0  0  0
   -7.8994   -3.0234  -22.8025 N   0  0  0  0  0  0  0  0  0  0  0  0
   -6.8539   -2.5853  -22.0373 C   0  0  0  0  0  0  0  0  0  0  0  0
   -5.7144   -2.9856  -22.0181 O   0  0  0  0  0  0  0  0  0  0  0  0
   -7.3679   -1.5322  -21.2564 N   0  0  0  0  0  0  0  0  0  0  0  0
   -6.6156   -0.8685  -20.2438 C   0  0  0  0  0  0  0  0  0  0  0  0
   -6.9685   -1.0258  -18.9267 C   0  0  0  0  0  0  0  0  0  0  0  0
   -6.2986   -0.4890  -17.8791 N   0  0  0  0  0  0  0  0  0  0  0  0
   -5.2365    0.2247  -18.1487 C   0  0  0  0  0  0  0  0  0  0  0  0
   -4.7705    0.4885  -19.4629 C   0  0  0  0  0  0  0  0  0  0  0  0
   -3.6378    1.3159  -19.6687 C   0  0  0  0  0  0  0  0  0  0  0  0
   -3.2435    1.6317  -20.9390 C   0  0  0  0  0  0  0  0  0  0  0  0
   -3.9620    1.1277  -22.0463 C   0  0  0  0  0  0  0  0  0  0  0  0
   -5.0519    0.3081  -21.8713 C   0  0  0  0  0  0  0  0  0  0  0  0
   -5.4825   -0.0476  -20.5599 C   0  0  0  0  0  0  0  0  0  0  0  0
   -5.5969   -0.0559  -22.7372 H   0  0  0  0  0  0  0  0  0  0  0  0
   -3.6545    1.4112  -23.0490 H   0  0  0  0  0  0  0  0  0  0  0  0
   -2.3964    2.2921  -21.0992 H   0  0  0  0  0  0  0  0  0  0  0  0
   -3.1262    1.7122  -18.7951 H   0  0  0  0  0  0  0  0  0  0  0  0
   -4.6931    0.6519  -17.3060 H   0  0  0  0  0  0  0  0  0  0  0  0
   -7.8327   -1.6305  -18.6688 H   0  0  0  0  0  0  0  0  0  0  0  0
   -8.7188   -1.3053  -21.5253 C   0  0  0  0  0  0  0  0  0  0  0  0
   -9.3701   -0.3879  -21.0843 O   0  0  0  0  0  0  0  0  0  0  0  0
   -7.8401   -3.9026  -23.2931 H   0  0  0  0  0  0  0  0  0  0  0  0
   -9.2220   -1.1117  -24.1922 H   0  0  0  0  0  0  0  0  0  0  0  0
   -9.8951   -2.7379  -24.4489 H   0  0  0  0  0  0  0  0  0  0  0  0
  -12.9722   -1.7487  -22.8568 H   0  0  0  0  0  0  0  0  0  0  0  0
  -12.1851   -3.1294  -23.7295 H   0  0  0  0  0  0  0  0  0  0  0  0
  -11.3989   -1.9854  -21.0567 H   0  0  0  0  0  0  0  0  0  0  0  0
  -12.3978   -4.3431  -20.2527 H   0  0  0  0  0  0  0  0  0  0  0  0
  -13.1768   -4.3375  -21.8373 H   0  0  0  0  0  0  0  0  0  0  0  0
  -13.4739   -3.0112  -20.6976 H   0  0  0  0  0  0  0  0  0  0  0  0
  1  2  1  0
  2  3  1  0
  3  4  1  0
  4  5  1  0
  5  6  1  0
  6  7  1  0
  7  8  1  0
  7  9  1  0
  6 10  1  6
 10 11  1  0
 11 12  2  0
 11 13  1  0
 13 14  1  0
 14 15  2  0
 15 16  1  0
 16 17  2  0
 17 18  1  0
 18 19  2  0
 19 20  1  0
 20 21  2  0
 21 22  1  0
 22 23  2  0
 22 24  1  0
 21 25  1  0
 20 26  1  0
 19 27  1  0
 17 28  1  0
 15 29  1  0
 13 30  1  0
 30 31  2  0
 10 32  1  0
  5 33  1  0
  5 34  1  0
  3 35  1  0
  3 36  1  0
  2 37  1  1
  1 38  1  0
  1 39  1  0
  1 40  1  0
  7  2  1  0
 23 14  1  0
 30  6  1  0
 23 18  1  0
M  END
>  <cnnaffinities>  (94) 
[5.54337]

>  <score>  (94) 
5.54337

>  <index>  (94) 
97

>  <Smiles>  (94) 
C([C@@]1(C(OC([C@@]2(C1([H])[H])N(C(=O)N(c1c(nc(c3c(c(c(c(c13)[H])[H])[H])[H])[H])[H])C2=O)[H])([H])[H])([H])[H])[H])([H])([H])[H]

>  <h>  (94) 
<NA>

>  <Training>  (94) 
True

>  <Success>  (94) 
True

>  <enamine_searched>  (94) 
False

>  <enamine_id>  (94) 
nan

$$$$
