
     RDKit          3D

 66 71  0  0  0  0  0  0  0  0999 V2000
   -7.3709    3.3863  -21.9095 C   0  0  0  0  0  0  0  0  0  0  0  0
   -8.3155    2.8965  -22.8991 N   0  0  0  0  0  0  0  0  0  0  0  0
   -7.8067    2.1689  -23.9342 C   0  0  0  0  0  0  0  0  0  0  0  0
   -6.6042    1.9835  -24.0674 O   0  0  0  0  0  0  0  0  0  0  0  0
   -8.8125    1.5765  -24.9198 C   0  0  0  0  0  0  0  0  0  0  0  0
   -9.4555    0.4146  -24.3354 N   0  0  0  0  0  0  0  0  0  0  0  0
   -8.6769   -0.8066  -24.1811 C   0  0  0  0  0  0  0  0  0  0  0  0
   -9.0359   -1.5401  -22.8664 C   0  0  2  0  0  0  0  0  0  0  0  0
   -8.5251   -0.7563  -21.6401 C   0  0  0  0  0  0  0  0  0  0  0  0
   -9.0188    0.2301  -21.1233 O   0  0  0  0  0  0  0  0  0  0  0  0
   -7.3815   -1.3754  -21.1958 N   0  0  0  0  0  0  0  0  0  0  0  0
   -6.6022   -0.8061  -20.1682 C   0  0  0  0  0  0  0  0  0  0  0  0
   -6.9347   -1.0275  -18.8562 C   0  0  0  0  0  0  0  0  0  0  0  0
   -6.2406   -0.5376  -17.8019 N   0  0  0  0  0  0  0  0  0  0  0  0
   -5.1918    0.2052  -18.0711 C   0  0  0  0  0  0  0  0  0  0  0  0
   -4.7473    0.5213  -19.3877 C   0  0  0  0  0  0  0  0  0  0  0  0
   -3.6206    1.3493  -19.6297 C   0  0  0  0  0  0  0  0  0  0  0  0
   -3.2388    1.6494  -20.9083 C   0  0  0  0  0  0  0  0  0  0  0  0
   -3.9680    1.1472  -22.0098 C   0  0  0  0  0  0  0  0  0  0  0  0
   -5.0647    0.3447  -21.8042 C   0  0  0  0  0  0  0  0  0  0  0  0
   -5.4741    0.0064  -20.4838 C   0  0  0  0  0  0  0  0  0  0  0  0
   -5.6384   -0.0013  -22.6589 H   0  0  0  0  0  0  0  0  0  0  0  0
   -3.6707    1.4054  -23.0204 H   0  0  0  0  0  0  0  0  0  0  0  0
   -2.3767    2.2845  -21.0840 H   0  0  0  0  0  0  0  0  0  0  0  0
   -3.0872    1.7500  -18.7730 H   0  0  0  0  0  0  0  0  0  0  0  0
   -4.6317    0.6008  -17.2246 H   0  0  0  0  0  0  0  0  0  0  0  0
   -7.8044   -1.6373  -18.6249 H   0  0  0  0  0  0  0  0  0  0  0  0
   -6.9985   -2.5557  -21.9428 C   0  0  0  0  0  0  0  0  0  0  0  0
   -8.2866   -2.8892  -22.7004 C   0  0  2  0  0  0  0  0  0  0  0  0
   -8.1049   -3.7301  -23.9649 C   0  0  0  0  0  0  0  0  0  0  0  0
   -7.6642   -5.0752  -23.6839 N   0  0  0  0  0  0  0  0  0  0  0  0
   -6.3615   -5.4121  -23.4994 C   0  0  0  0  0  0  0  0  0  0  0  0
   -5.2884   -4.7168  -24.0953 C   0  0  0  0  0  0  0  0  0  0  0  0
   -4.0415   -5.2976  -23.9842 C   0  0  0  0  0  0  0  0  0  0  0  0
   -3.8068   -6.3850  -23.2446 N   0  0  0  0  0  0  0  0  0  0  0  0
   -4.8751   -6.8767  -22.6291 C   0  0  0  0  0  0  0  0  0  0  0  0
   -6.1422   -6.4883  -22.7317 N   0  0  0  0  0  0  0  0  0  0  0  0
   -4.6901   -7.6995  -21.9475 H   0  0  0  0  0  0  0  0  0  0  0  0
   -3.1829   -4.8655  -24.5128 H   0  0  0  0  0  0  0  0  0  0  0  0
   -5.4275   -3.7701  -24.6093 H   0  0  0  0  0  0  0  0  0  0  0  0
   -8.3178   -5.7317  -23.2716 H   0  0  0  0  0  0  0  0  0  0  0  0
   -7.3785   -3.2500  -24.6264 H   0  0  0  0  0  0  0  0  0  0  0  0
   -9.0467   -3.7750  -24.5203 H   0  0  0  0  0  0  0  0  0  0  0  0
   -8.8777   -3.4920  -22.0087 H   0  0  0  0  0  0  0  0  0  0  0  0
   -6.1511   -2.3661  -22.6213 H   0  0  0  0  0  0  0  0  0  0  0  0
   -6.7008   -3.3518  -21.2557 H   0  0  0  0  0  0  0  0  0  0  0  0
  -10.5346   -1.6473  -22.7756 C   0  0  0  0  0  0  0  0  0  0  0  0
  -11.0953   -2.5629  -21.8860 C   0  0  0  0  0  0  0  0  0  0  0  0
  -12.4588   -2.6098  -21.7130 C   0  0  0  0  0  0  0  0  0  0  0  0
  -13.0623   -3.6956  -20.4973 Cl  0  0  0  0  0  0  0  0  0  0  0  0
  -13.3154   -1.7797  -22.4344 C   0  0  0  0  0  0  0  0  0  0  0  0
  -12.7650   -0.8467  -23.2918 C   0  0  0  0  0  0  0  0  0  0  0  0
  -11.3804   -0.7450  -23.4294 C   0  0  0  0  0  0  0  0  0  0  0  0
  -10.8209    0.4034  -24.2157 C   0  0  0  0  0  0  0  0  0  0  0  0
  -11.5296    1.2835  -24.6854 O   0  0  0  0  0  0  0  0  0  0  0  0
  -13.3873   -0.1546  -23.8465 H   0  0  0  0  0  0  0  0  0  0  0  0
  -14.3854   -1.8505  -22.2841 H   0  0  0  0  0  0  0  0  0  0  0  0
  -10.4911   -3.2374  -21.2906 H   0  0  0  0  0  0  0  0  0  0  0  0
   -7.6127   -0.5476  -24.2033 H   0  0  0  0  0  0  0  0  0  0  0  0
   -8.8728   -1.4759  -25.0309 H   0  0  0  0  0  0  0  0  0  0  0  0
   -9.6012    2.2844  -25.1944 H   0  0  0  0  0  0  0  0  0  0  0  0
   -8.2713    1.2915  -25.8301 H   0  0  0  0  0  0  0  0  0  0  0  0
   -9.2550    2.6911  -22.5808 H   0  0  0  0  0  0  0  0  0  0  0  0
   -6.8178    2.5461  -21.4608 H   0  0  0  0  0  0  0  0  0  0  0  0
   -7.9020    3.9618  -21.1483 H   0  0  0  0  0  0  0  0  0  0  0  0
   -6.6569    4.0622  -22.3873 H   0  0  0  0  0  0  0  0  0  0  0  0
  1  2  1  0
  2  3  1  0
  3  4  2  0
  3  5  1  0
  5  6  1  0
  6  7  1  0
  8  7  1  6
  8  9  1  0
  9 10  2  0
  9 11  1  0
 11 12  1  0
 12 13  2  0
 13 14  1  0
 14 15  2  0
 15 16  1  0
 16 17  2  0
 17 18  1  0
 18 19  2  0
 19 20  1  0
 20 21  2  0
 20 22  1  0
 19 23  1  0
 18 24  1  0
 17 25  1  0
 15 26  1  0
 13 27  1  0
 11 28  1  0
 28 29  1  0
 29 30  1  0
 30 31  1  0
 31 32  1  0
 32 33  2  0
 33 34  1  0
 34 35  2  0
 35 36  1  0
 36 37  2  0
 36 38  1  0
 34 39  1  0
 33 40  1  0
 31 41  1  0
 30 42  1  0
 30 43  1  0
 29 44  1  1
 28 45  1  0
 28 46  1  0
  8 47  1  0
 47 48  2  0
 48 49  1  0
 49 50  1  0
 49 51  2  0
 51 52  1  0
 52 53  2  0
 53 54  1  0
 54 55  2  0
 52 56  1  0
 51 57  1  0
 48 58  1  0
  7 59  1  0
  7 60  1  0
  5 61  1  0
  5 62  1  0
  2 63  1  0
  1 64  1  0
  1 65  1  0
  1 66  1  0
 54  6  1  0
 29  8  1  0
 37 32  1  0
 53 47  1  0
 21 12  1  0
 21 16  1  0
M  END
>  <cnnaffinities>  (1) 
[6.54645, 6.6536, 6.07961]

>  <score>  (1) 
6.54645

>  <index>  (1) 
0

>  <Smiles>  (1) 
C(N(C(=O)C(N1C([C@@]2(C(=O)N(c3c(nc(c4c(c(c(c(c34)[H])[H])[H])[H])[H])[H])C([C@@]2(C(N(c2c(c(nc(n2)[H])[H])[H])[H])([H])[H])[H])([H])[H])c2c(c(Cl)c(c(c2C1=O)[H])[H])[H])([H])[H])([H])[H])[H])([H])([H])[H]

>  <h>  (1) 
<NA>

>  <Training>  (1) 
True

>  <Success>  (1) 
True

>  <enamine_searched>  (1) 
False

>  <enamine_id>  (1) 
nan

$$$$

     RDKit          3D

 68 73  0  0  0  0  0  0  0  0999 V2000
   -7.5206   -5.9792  -26.7895 C   0  0  0  0  0  0  0  0  0  0  0  0
   -7.8978   -4.5938  -26.9971 N   0  0  0  0  0  0  0  0  0  0  0  0
   -7.0032   -3.6206  -26.6947 C   0  0  0  0  0  0  0  0  0  0  0  0
   -5.8860   -3.8612  -26.2620 O   0  0  0  0  0  0  0  0  0  0  0  0
   -7.5248   -2.1917  -26.8624 C   0  0  0  0  0  0  0  0  0  0  0  0
   -8.3981   -1.8493  -25.7489 N   0  0  0  0  0  0  0  0  0  0  0  0
   -7.8321   -1.3169  -24.5102 C   0  0  0  0  0  0  0  0  0  0  0  0
   -8.6839   -1.6113  -23.2338 C   0  0  2  0  0  0  0  0  0  0  0  0
   -8.1344   -0.6782  -22.1400 C   0  0  0  0  0  0  0  0  0  0  0  0
   -8.2612    0.5276  -22.0894 O   0  0  0  0  0  0  0  0  0  0  0  0
   -7.3953   -1.4224  -21.2402 N   0  0  0  0  0  0  0  0  0  0  0  0
   -6.6114   -0.8277  -20.2178 C   0  0  0  0  0  0  0  0  0  0  0  0
   -6.9172   -1.0705  -18.9035 C   0  0  0  0  0  0  0  0  0  0  0  0
   -6.2454   -0.5604  -17.8421 N   0  0  0  0  0  0  0  0  0  0  0  0
   -5.2121    0.2036  -18.1041 C   0  0  0  0  0  0  0  0  0  0  0  0
   -4.7624    0.5137  -19.4167 C   0  0  0  0  0  0  0  0  0  0  0  0
   -3.6269    1.3370  -19.6301 C   0  0  0  0  0  0  0  0  0  0  0  0
   -3.1964    1.6090  -20.8969 C   0  0  0  0  0  0  0  0  0  0  0  0
   -3.8814    1.0665  -22.0087 C   0  0  0  0  0  0  0  0  0  0  0  0
   -4.9839    0.2727  -21.8280 C   0  0  0  0  0  0  0  0  0  0  0  0
   -5.4678   -0.0175  -20.5211 C   0  0  0  0  0  0  0  0  0  0  0  0
   -5.5048   -0.1259  -22.6939 H   0  0  0  0  0  0  0  0  0  0  0  0
   -3.5295    1.2884  -23.0101 H   0  0  0  0  0  0  0  0  0  0  0  0
   -2.3294    2.2415  -21.0575 H   0  0  0  0  0  0  0  0  0  0  0  0
   -3.1194    1.7495  -18.7608 H   0  0  0  0  0  0  0  0  0  0  0  0
   -4.6667    0.6127  -17.2533 H   0  0  0  0  0  0  0  0  0  0  0  0
   -7.7695   -1.7029  -18.6604 H   0  0  0  0  0  0  0  0  0  0  0  0
   -7.3478   -2.8444  -21.5371 C   0  0  0  0  0  0  0  0  0  0  0  0
   -8.4898   -3.0183  -22.5521 C   0  0  2  0  0  0  0  0  0  0  0  0
   -8.3024   -4.1840  -23.5328 C   0  0  0  0  0  0  0  0  0  0  0  0
   -8.2611   -5.4938  -22.9295 N   0  0  0  0  0  0  0  0  0  0  0  0
   -7.0868   -6.2149  -22.7666 C   0  0  0  0  0  0  0  0  0  0  0  0
   -6.9779   -7.5605  -22.3300 C   0  0  0  0  0  0  0  0  0  0  0  0
   -5.7131   -7.9405  -22.2340 N   0  0  0  0  0  0  0  0  0  0  0  0
   -4.9887   -6.8916  -22.6339 N   0  0  0  0  0  0  0  0  0  0  0  0
   -3.5431   -7.0036  -22.6859 C   0  0  0  0  0  0  0  0  0  0  0  0
   -3.2539   -7.7890  -21.9827 H   0  0  0  0  0  0  0  0  0  0  0  0
   -3.1723   -7.2917  -23.6787 H   0  0  0  0  0  0  0  0  0  0  0  0
   -3.0868   -6.0481  -22.4055 H   0  0  0  0  0  0  0  0  0  0  0  0
   -5.7740   -5.8266  -22.9723 C   0  0  0  0  0  0  0  0  0  0  0  0
   -5.3335   -4.9161  -23.3661 H   0  0  0  0  0  0  0  0  0  0  0  0
   -7.7664   -8.2551  -22.0503 H   0  0  0  0  0  0  0  0  0  0  0  0
   -9.0839   -5.8335  -22.4511 H   0  0  0  0  0  0  0  0  0  0  0  0
   -9.1370   -4.1323  -24.2462 H   0  0  0  0  0  0  0  0  0  0  0  0
   -7.3622   -4.0483  -24.0779 H   0  0  0  0  0  0  0  0  0  0  0  0
   -9.4088   -3.2021  -21.9698 H   0  0  0  0  0  0  0  0  0  0  0  0
   -6.3650   -3.1391  -21.9457 H   0  0  0  0  0  0  0  0  0  0  0  0
   -7.4949   -3.4239  -20.6187 H   0  0  0  0  0  0  0  0  0  0  0  0
  -10.1369   -1.3305  -23.5722 C   0  0  0  0  0  0  0  0  0  0  0  0
  -11.0860   -1.1151  -22.5670 C   0  0  0  0  0  0  0  0  0  0  0  0
  -12.4308   -1.0424  -22.8918 C   0  0  0  0  0  0  0  0  0  0  0  0
  -13.6409   -1.1886  -21.6615 Cl  0  0  0  0  0  0  0  0  0  0  0  0
  -12.8713   -0.9699  -24.2098 C   0  0  0  0  0  0  0  0  0  0  0  0
  -11.9345   -1.1442  -25.2028 C   0  0  0  0  0  0  0  0  0  0  0  0
  -10.6063   -1.4073  -24.8848 C   0  0  0  0  0  0  0  0  0  0  0  0
   -9.7392   -1.8867  -25.9873 C   0  0  0  0  0  0  0  0  0  0  0  0
  -10.2077   -2.3203  -27.0356 O   0  0  0  0  0  0  0  0  0  0  0  0
  -12.2274   -1.1748  -26.2432 H   0  0  0  0  0  0  0  0  0  0  0  0
  -13.9230   -0.8392  -24.4394 H   0  0  0  0  0  0  0  0  0  0  0  0
  -10.7776   -1.0058  -21.5351 H   0  0  0  0  0  0  0  0  0  0  0  0
   -7.7593   -0.2226  -24.5967 H   0  0  0  0  0  0  0  0  0  0  0  0
   -6.8155   -1.7207  -24.3915 H   0  0  0  0  0  0  0  0  0  0  0  0
   -6.6894   -1.4894  -26.9160 H   0  0  0  0  0  0  0  0  0  0  0  0
   -8.1132   -2.1024  -27.7800 H   0  0  0  0  0  0  0  0  0  0  0  0
   -8.8474   -4.3389  -27.2354 H   0  0  0  0  0  0  0  0  0  0  0  0
   -7.2023   -6.1405  -25.7494 H   0  0  0  0  0  0  0  0  0  0  0  0
   -8.3765   -6.6185  -27.0063 H   0  0  0  0  0  0  0  0  0  0  0  0
   -6.6936   -6.2455  -27.4570 H   0  0  0  0  0  0  0  0  0  0  0  0
  1  2  1  0
  2  3  1  0
  3  4  2  0
  3  5  1  0
  5  6  1  0
  6  7  1  0
  8  7  1  6
  8  9  1  0
  9 10  2  0
  9 11  1  0
 11 12  1  0
 12 13  2  0
 13 14  1  0
 14 15  2  0
 15 16  1  0
 16 17  2  0
 17 18  1  0
 18 19  2  0
 19 20  1  0
 20 21  2  0
 20 22  1  0
 19 23  1  0
 18 24  1  0
 17 25  1  0
 15 26  1  0
 13 27  1  0
 11 28  1  0
 28 29  1  0
 29 30  1  0
 30 31  1  0
 31 32  1  0
 32 33  1  0
 33 34  2  0
 34 35  1  0
 35 36  1  0
 36 37  1  0
 36 38  1  0
 36 39  1  0
 35 40  1  0
 40 41  1  0
 33 42  1  0
 31 43  1  0
 30 44  1  0
 30 45  1  0
 29 46  1  1
 28 47  1  0
 28 48  1  0
  8 49  1  0
 49 50  2  0
 50 51  1  0
 51 52  1  0
 51 53  2  0
 53 54  1  0
 54 55  2  0
 55 56  1  0
 56 57  2  0
 54 58  1  0
 53 59  1  0
 50 60  1  0
  7 61  1  0
  7 62  1  0
  5 63  1  0
  5 64  1  0
  2 65  1  0
  1 66  1  0
  1 67  1  0
  1 68  1  0
 56  6  1  0
 29  8  1  0
 40 32  2  0
 55 49  1  0
 21 12  1  0
 21 16  1  0
M  END
>  <cnnaffinities>  (2) 
[6.39376, 6.68056, 6.58986]

>  <score>  (2) 
6.39376

>  <index>  (2) 
1

>  <Smiles>  (2) 
C(N(C(=O)C(N1C([C@@]2(C(=O)N(c3c(nc(c4c(c(c(c(c34)[H])[H])[H])[H])[H])[H])C([C@@]2(C(N(c2c(nn(C([H])([H])[H])c2[H])[H])[H])([H])[H])[H])([H])[H])c2c(c(Cl)c(c(c2C1=O)[H])[H])[H])([H])[H])([H])[H])[H])([H])([H])[H]

>  <h>  (2) 
<NA>

>  <Training>  (2) 
True

>  <Success>  (2) 
True

>  <enamine_searched>  (2) 
False

>  <enamine_id>  (2) 
nan

$$$$

     RDKit          3D

 60 65  0  0  0  0  0  0  0  0999 V2000
  -10.4488    0.0460  -29.9934 C   0  0  0  0  0  0  0  0  0  0  0  0
  -10.3574    0.1526  -28.4987 C   0  0  0  0  0  0  0  0  0  0  0  0
   -9.1590    0.4474  -27.8689 C   0  0  0  0  0  0  0  0  0  0  0  0
   -9.0605    0.6503  -26.5557 N   0  0  0  0  0  0  0  0  0  0  0  0
  -10.1971    0.5261  -25.8549 C   0  0  0  0  0  0  0  0  0  0  0  0
  -10.1639    0.7294  -24.3734 C   0  0  0  0  0  0  0  0  0  0  0  0
  -10.3702   -0.5101  -23.6666 N   0  0  0  0  0  0  0  0  0  0  0  0
   -9.3294   -1.5215  -23.7630 C   0  0  0  0  0  0  0  0  0  0  0  0
   -9.1658   -2.2523  -22.4205 C   0  0  2  0  0  0  0  0  0  0  0  0
   -8.6335   -1.2309  -21.3833 C   0  0  0  0  0  0  0  0  0  0  0  0
   -9.2328   -0.3144  -20.8633 O   0  0  0  0  0  0  0  0  0  0  0  0
   -7.2972   -1.5040  -21.1795 N   0  0  0  0  0  0  0  0  0  0  0  0
   -6.5739   -0.8489  -20.1568 C   0  0  0  0  0  0  0  0  0  0  0  0
   -6.9297   -1.0241  -18.8408 C   0  0  0  0  0  0  0  0  0  0  0  0
   -6.2451   -0.5090  -17.7909 N   0  0  0  0  0  0  0  0  0  0  0  0
   -5.1900    0.2229  -18.0565 C   0  0  0  0  0  0  0  0  0  0  0  0
   -4.7339    0.5154  -19.3731 C   0  0  0  0  0  0  0  0  0  0  0  0
   -3.6026    1.3379  -19.6089 C   0  0  0  0  0  0  0  0  0  0  0  0
   -3.2150    1.6355  -20.8855 C   0  0  0  0  0  0  0  0  0  0  0  0
   -3.9385    1.1260  -21.9862 C   0  0  0  0  0  0  0  0  0  0  0  0
   -5.0335    0.3195  -21.7849 C   0  0  0  0  0  0  0  0  0  0  0  0
   -5.4497   -0.0177  -20.4679 C   0  0  0  0  0  0  0  0  0  0  0  0
   -5.6010   -0.0485  -22.6346 H   0  0  0  0  0  0  0  0  0  0  0  0
   -3.6358    1.3901  -22.9954 H   0  0  0  0  0  0  0  0  0  0  0  0
   -2.3603    2.2829  -21.0606 H   0  0  0  0  0  0  0  0  0  0  0  0
   -3.0745    1.7427  -18.7505 H   0  0  0  0  0  0  0  0  0  0  0  0
   -4.6408    0.6327  -17.2070 H   0  0  0  0  0  0  0  0  0  0  0  0
   -7.7953   -1.6270  -18.5726 H   0  0  0  0  0  0  0  0  0  0  0  0
   -6.8005   -2.5769  -22.0223 C   0  0  0  0  0  0  0  0  0  0  0  0
   -8.0613   -3.3480  -22.4318 C   0  0  2  0  0  0  0  0  0  0  0  0
   -7.8967   -4.0974  -23.7576 C   0  0  0  0  0  0  0  0  0  0  0  0
   -7.6152   -3.3935  -24.5483 H   0  0  0  0  0  0  0  0  0  0  0  0
   -8.8131   -4.6050  -24.0849 H   0  0  0  0  0  0  0  0  0  0  0  0
   -7.1073   -4.8491  -23.6811 H   0  0  0  0  0  0  0  0  0  0  0  0
   -8.2532   -4.0777  -21.6271 H   0  0  0  0  0  0  0  0  0  0  0  0
   -6.3154   -2.1989  -22.9322 H   0  0  0  0  0  0  0  0  0  0  0  0
   -6.0923   -3.1963  -21.4725 H   0  0  0  0  0  0  0  0  0  0  0  0
  -10.5860   -2.7796  -22.1011 C   0  0  0  0  0  0  0  0  0  0  0  0
  -11.0049   -3.8275  -21.3966 C   0  0  0  0  0  0  0  0  0  0  0  0
  -13.0505   -2.9913  -20.6684 C   0  0  0  0  0  0  0  0  0  0  0  0
  -13.2505   -4.4506  -20.2383 F   0  0  0  0  0  0  0  0  0  0  0  0
  -13.1157   -3.1089  -20.6654 C   0  0  0  0  0  0  0  0  0  0  0  0
  -12.9680   -2.3151  -21.8802 C   0  0  0  0  0  0  0  0  0  0  0  0
  -11.7294   -1.9901  -22.4719 C   0  0  0  0  0  0  0  0  0  0  0  0
  -11.6648   -0.8449  -23.3136 C   0  0  0  0  0  0  0  0  0  0  0  0
  -12.6416   -0.2042  -23.6715 O   0  0  0  0  0  0  0  0  0  0  0  0
  -13.8718   -1.9309  -21.7299 H   0  0  0  0  0  0  0  0  0  0  0  0
  -14.0057   -2.5850  -19.8523 H   0  0  0  0  0  0  0  0  0  0  0  0
  -10.4249   -4.5511  -20.8280 H   0  0  0  0  0  0  0  0  0  0  0  0
   -9.5862   -2.2609  -24.5310 H   0  0  0  0  0  0  0  0  0  0  0  0
   -8.4099   -1.0165  -24.0771 H   0  0  0  0  0  0  0  0  0  0  0  0
   -9.1990    1.1587  -24.0675 H   0  0  0  0  0  0  0  0  0  0  0  0
  -10.9692    1.4005  -24.0453 H   0  0  0  0  0  0  0  0  0  0  0  0
  -11.3802    0.1239  -26.4669 C   0  0  0  0  0  0  0  0  0  0  0  0
  -11.4556   -0.0751  -27.7876 N   0  0  0  0  0  0  0  0  0  0  0  0
  -12.2716   -0.0261  -25.8713 H   0  0  0  0  0  0  0  0  0  0  0  0
   -8.2423    0.5154  -28.4498 H   0  0  0  0  0  0  0  0  0  0  0  0
   -9.6626    0.6534  -30.4477 H   0  0  0  0  0  0  0  0  0  0  0  0
  -10.3100   -0.9919  -30.3040 H   0  0  0  0  0  0  0  0  0  0  0  0
  -11.4266    0.3877  -30.3363 H   0  0  0  0  0  0  0  0  0  0  0  0
  1  2  1  0
  2  3  2  0
  3  4  1  0
  4  5  2  0
  5  6  1  0
  6  7  1  0
  7  8  1  0
  9  8  1  6
  9 10  1  0
 10 11  2  0
 10 12  1  0
 12 13  1  0
 13 14  2  0
 14 15  1  0
 15 16  2  0
 16 17  1  0
 17 18  2  0
 18 19  1  0
 19 20  2  0
 20 21  1  0
 21 22  2  0
 21 23  1  0
 20 24  1  0
 19 25  1  0
 18 26  1  0
 16 27  1  0
 14 28  1  0
 12 29  1  0
 29 30  1  0
 30 31  1  0
 31 32  1  0
 31 33  1  0
 31 34  1  0
 30 35  1  1
 29 36  1  0
 29 37  1  0
  9 38  1  0
 38 39  2  0
 39 40  1  0
 40 41  1  0
 40 42  2  0
 42 43  1  0
 43 44  2  0
 44 45  1  0
 45 46  2  0
 43 47  1  0
 42 48  1  0
 39 49  1  0
  8 50  1  0
  8 51  1  0
  6 52  1  0
  6 53  1  0
  5 54  1  0
 54 55  2  0
 54 56  1  0
  3 57  1  0
  1 58  1  0
  1 59  1  0
  1 60  1  0
 55  2  1  0
 45  7  1  0
 30  9  1  0
 44 38  1  0
 22 13  1  0
 22 17  1  0
M  END
>  <cnnaffinities>  (3) 
[6.13471]

>  <score>  (3) 
6.13471

>  <index>  (3) 
2

>  <Smiles>  (3) 
C(c1c(nc(C(N2C([C@@]3(C(=O)N(c4c(nc(c5c(c(c(c(c45)[H])[H])[H])[H])[H])[H])C([C@@]3(C([H])([H])[H])[H])([H])[H])c3c(c(F)c(c(c3C2=O)[H])[H])[H])([H])[H])([H])[H])c(n1)[H])[H])([H])([H])[H]

>  <h>  (3) 
<NA>

>  <Training>  (3) 
True

>  <Success>  (3) 
True

>  <enamine_searched>  (3) 
False

>  <enamine_id>  (3) 
nan

$$$$

     RDKit          3D

 66 70  0  0  0  0  0  0  0  0999 V2000
   -7.4569    3.3140  -21.9077 C   0  0  0  0  0  0  0  0  0  0  0  0
   -8.4732    2.8185  -22.8257 N   0  0  0  0  0  0  0  0  0  0  0  0
   -8.0151    2.0930  -23.8880 C   0  0  0  0  0  0  0  0  0  0  0  0
   -6.8240    1.8958  -24.0746 O   0  0  0  0  0  0  0  0  0  0  0  0
   -9.0429    1.5018  -24.8408 C   0  0  0  0  0  0  0  0  0  0  0  0
   -9.5925    0.2896  -24.2665 N   0  0  0  0  0  0  0  0  0  0  0  0
   -8.7600   -0.8997  -24.1310 C   0  0  0  0  0  0  0  0  0  0  0  0
   -9.0629   -1.6769  -22.8177 C   0  0  2  0  0  0  0  0  0  0  0  0
   -8.5553   -0.8843  -21.5926 C   0  0  0  0  0  0  0  0  0  0  0  0
   -9.0864    0.0723  -21.0604 O   0  0  0  0  0  0  0  0  0  0  0  0
   -7.3603   -1.4358  -21.1877 N   0  0  0  0  0  0  0  0  0  0  0  0
   -6.5913   -0.8337  -20.1643 C   0  0  0  0  0  0  0  0  0  0  0  0
   -6.9276   -1.0363  -18.8501 C   0  0  0  0  0  0  0  0  0  0  0  0
   -6.2377   -0.5348  -17.7972 N   0  0  0  0  0  0  0  0  0  0  0  0
   -5.1902    0.2074  -18.0715 C   0  0  0  0  0  0  0  0  0  0  0  0
   -4.7458    0.5174  -19.3893 C   0  0  0  0  0  0  0  0  0  0  0  0
   -3.6227    1.3519  -19.6297 C   0  0  0  0  0  0  0  0  0  0  0  0
   -3.2407    1.6486  -20.9090 C   0  0  0  0  0  0  0  0  0  0  0  0
   -3.9667    1.1384  -22.0069 C   0  0  0  0  0  0  0  0  0  0  0  0
   -5.0614    0.3319  -21.8038 C   0  0  0  0  0  0  0  0  0  0  0  0
   -5.4692   -0.0099  -20.4838 C   0  0  0  0  0  0  0  0  0  0  0  0
   -5.6368   -0.0095  -22.6591 H   0  0  0  0  0  0  0  0  0  0  0  0
   -3.6605    1.3914  -23.0171 H   0  0  0  0  0  0  0  0  0  0  0  0
   -2.3841    2.2918  -21.0851 H   0  0  0  0  0  0  0  0  0  0  0  0
   -3.0940    1.7578  -18.7717 H   0  0  0  0  0  0  0  0  0  0  0  0
   -4.6348    0.6129  -17.2260 H   0  0  0  0  0  0  0  0  0  0  0  0
   -7.7952   -1.6479  -18.6153 H   0  0  0  0  0  0  0  0  0  0  0  0
   -6.9353   -2.5933  -21.9524 C   0  0  0  0  0  0  0  0  0  0  0  0
   -8.2147   -2.9827  -22.7161 C   0  0  2  0  0  0  0  0  0  0  0  0
   -7.9300   -3.6804  -24.0410 C   0  0  0  0  0  0  0  0  0  0  0  0
   -7.2184   -4.8755  -23.8040 O   0  0  0  0  0  0  0  0  0  0  0  0
   -7.0451   -5.6944  -24.9557 C   0  0  0  0  0  0  0  0  0  0  0  0
   -5.6711   -6.3475  -24.8671 C   0  0  0  0  0  0  0  0  0  0  0  0
   -5.4906   -6.9638  -25.7586 H   0  0  0  0  0  0  0  0  0  0  0  0
   -4.8851   -5.5872  -24.8005 H   0  0  0  0  0  0  0  0  0  0  0  0
   -5.6202   -6.9874  -23.9777 H   0  0  0  0  0  0  0  0  0  0  0  0
   -8.1511   -6.7447  -25.0378 C   0  0  0  0  0  0  0  0  0  0  0  0
   -8.1243   -7.3873  -24.1497 H   0  0  0  0  0  0  0  0  0  0  0  0
   -9.1455   -6.2854  -25.1008 H   0  0  0  0  0  0  0  0  0  0  0  0
   -8.0060   -7.3703  -25.9279 H   0  0  0  0  0  0  0  0  0  0  0  0
   -7.0813   -5.0667  -25.8623 H   0  0  0  0  0  0  0  0  0  0  0  0
   -8.8806   -3.8850  -24.5585 H   0  0  0  0  0  0  0  0  0  0  0  0
   -7.3255   -3.0288  -24.6942 H   0  0  0  0  0  0  0  0  0  0  0  0
   -8.7557   -3.6994  -22.0923 H   0  0  0  0  0  0  0  0  0  0  0  0
   -6.1057   -2.3478  -22.6344 H   0  0  0  0  0  0  0  0  0  0  0  0
   -6.5920   -3.3923  -21.2874 H   0  0  0  0  0  0  0  0  0  0  0  0
  -10.5633   -1.8569  -22.7256 C   0  0  0  0  0  0  0  0  0  0  0  0
  -11.1122   -2.8090  -21.8625 C   0  0  0  0  0  0  0  0  0  0  0  0
  -12.4758   -2.8344  -21.6392 C   0  0  0  0  0  0  0  0  0  0  0  0
  -13.0855   -3.9263  -20.4333 Cl  0  0  0  0  0  0  0  0  0  0  0  0
  -13.3461   -1.9795  -22.3190 C   0  0  0  0  0  0  0  0  0  0  0  0
  -12.8166   -1.0713  -23.2049 C   0  0  0  0  0  0  0  0  0  0  0  0
  -11.4393   -0.9681  -23.3621 C   0  0  0  0  0  0  0  0  0  0  0  0
  -10.9470    0.2113  -24.1318 C   0  0  0  0  0  0  0  0  0  0  0  0
  -11.7110    1.0641  -24.5679 O   0  0  0  0  0  0  0  0  0  0  0  0
  -13.4467   -0.3826  -23.7578 H   0  0  0  0  0  0  0  0  0  0  0  0
  -14.4137   -1.9751  -22.1362 H   0  0  0  0  0  0  0  0  0  0  0  0
  -10.4928   -3.5199  -21.3274 H   0  0  0  0  0  0  0  0  0  0  0  0
   -8.9435   -1.5756  -24.9804 H   0  0  0  0  0  0  0  0  0  0  0  0
   -7.7071   -0.5985  -24.1616 H   0  0  0  0  0  0  0  0  0  0  0  0
   -8.5672    1.2781  -25.8018 H   0  0  0  0  0  0  0  0  0  0  0  0
   -9.8884    2.1657  -25.0317 H   0  0  0  0  0  0  0  0  0  0  0  0
   -9.3976    2.6275  -22.4486 H   0  0  0  0  0  0  0  0  0  0  0  0
   -6.7196    3.8870  -22.4804 H   0  0  0  0  0  0  0  0  0  0  0  0
   -7.9003    3.9964  -21.1734 H   0  0  0  0  0  0  0  0  0  0  0  0
   -6.9452    2.4595  -21.4293 H   0  0  0  0  0  0  0  0  0  0  0  0
  1  2  1  0
  2  3  1  0
  3  4  2  0
  3  5  1  0
  5  6  1  0
  6  7  1  0
  8  7  1  6
  8  9  1  0
  9 10  2  0
  9 11  1  0
 11 12  1  0
 12 13  2  0
 13 14  1  0
 14 15  2  0
 15 16  1  0
 16 17  2  0
 17 18  1  0
 18 19  2  0
 19 20  1  0
 20 21  2  0
 20 22  1  0
 19 23  1  0
 18 24  1  0
 17 25  1  0
 15 26  1  0
 13 27  1  0
 11 28  1  0
 28 29  1  0
 29 30  1  0
 30 31  1  0
 31 32  1  0
 32 33  1  0
 33 34  1  0
 33 35  1  0
 33 36  1  0
 32 37  1  0
 37 38  1  0
 37 39  1  0
 37 40  1  0
 32 41  1  0
 30 42  1  0
 30 43  1  0
 29 44  1  1
 28 45  1  0
 28 46  1  0
  8 47  1  0
 47 48  2  0
 48 49  1  0
 49 50  1  0
 49 51  2  0
 51 52  1  0
 52 53  2  0
 53 54  1  0
 54 55  2  0
 52 56  1  0
 51 57  1  0
 48 58  1  0
  7 59  1  0
  7 60  1  0
  5 61  1  0
  5 62  1  0
  2 63  1  0
  1 64  1  0
  1 65  1  0
  1 66  1  0
 54  6  1  0
 29  8  1  0
 53 47  1  0
 21 12  1  0
 21 16  1  0
M  END
>  <cnnaffinities>  (4) 
[6.48074]

>  <score>  (4) 
6.48074

>  <index>  (4) 
3

>  <Smiles>  (4) 
C(N(C(=O)C(N1C([C@@]2(C(=O)N(c3c(nc(c4c(c(c(c(c34)[H])[H])[H])[H])[H])[H])C([C@@]2(C(OC(C([H])([H])[H])(C([H])([H])[H])[H])([H])[H])[H])([H])[H])c2c(c(Cl)c(c(c2C1=O)[H])[H])[H])([H])[H])([H])[H])[H])([H])([H])[H]

>  <h>  (4) 
<NA>

>  <Training>  (4) 
True

>  <Success>  (4) 
True

>  <enamine_searched>  (4) 
False

>  <enamine_id>  (4) 
nan

$$$$

     RDKit          3D

 59 64  0  0  0  0  0  0  0  0999 V2000
   -8.2661   -4.1094  -23.5378 C   0  0  0  0  0  0  0  0  0  0  0  0
   -8.5197   -2.9669  -22.5573 C   0  0  1  0  0  0  0  0  0  0  0  0
   -7.3962   -2.7988  -21.5201 C   0  0  0  0  0  0  0  0  0  0  0  0
   -7.4207   -1.3816  -21.2019 N   0  0  0  0  0  0  0  0  0  0  0  0
   -6.6125   -0.8019  -20.1853 C   0  0  0  0  0  0  0  0  0  0  0  0
   -6.8983   -1.0515  -18.8675 C   0  0  0  0  0  0  0  0  0  0  0  0
   -6.2036   -0.5509  -17.8150 N   0  0  0  0  0  0  0  0  0  0  0  0
   -5.1713    0.2123  -18.0834 C   0  0  0  0  0  0  0  0  0  0  0  0
   -4.7336    0.5261  -19.4002 C   0  0  0  0  0  0  0  0  0  0  0  0
   -3.5964    1.3474  -19.6350 C   0  0  0  0  0  0  0  0  0  0  0  0
   -3.1838    1.6161  -20.9102 C   0  0  0  0  0  0  0  0  0  0  0  0
   -3.8839    1.0650  -22.0090 C   0  0  0  0  0  0  0  0  0  0  0  0
   -4.9835    0.2715  -21.8058 C   0  0  0  0  0  0  0  0  0  0  0  0
   -5.4594   -0.0026  -20.4933 C   0  0  0  0  0  0  0  0  0  0  0  0
   -5.5146   -0.1428  -22.6567 H   0  0  0  0  0  0  0  0  0  0  0  0
   -3.5573    1.2877  -23.0197 H   0  0  0  0  0  0  0  0  0  0  0  0
   -2.3260    2.2593  -21.0881 H   0  0  0  0  0  0  0  0  0  0  0  0
   -3.0768    1.7667  -18.7762 H   0  0  0  0  0  0  0  0  0  0  0  0
   -4.6239    0.6180  -17.2318 H   0  0  0  0  0  0  0  0  0  0  0  0
   -7.7445   -1.6846  -18.6059 H   0  0  0  0  0  0  0  0  0  0  0  0
   -8.1380   -0.6223  -22.1020 C   0  0  0  0  0  0  0  0  0  0  0  0
   -8.2343    0.5883  -22.0366 O   0  0  0  0  0  0  0  0  0  0  0  0
   -8.7378   -1.5453  -23.1880 C   0  0  1  0  0  0  0  0  0  0  0  0
   -7.9711   -1.2653  -24.5007 C   0  0  0  0  0  0  0  0  0  0  0  0
   -8.6066   -1.8228  -25.6952 N   0  0  0  0  0  0  0  0  0  0  0  0
   -7.7350   -2.0661  -26.8406 C   0  0  0  0  0  0  0  0  0  0  0  0
   -6.9387   -3.3380  -26.7154 C   0  0  0  0  0  0  0  0  0  0  0  0
   -5.7045   -3.3972  -26.2589 N   0  0  0  0  0  0  0  0  0  0  0  0
   -5.3728   -4.7303  -26.2685 C   0  0  0  0  0  0  0  0  0  0  0  0
   -6.4278   -5.4766  -26.7175 C   0  0  0  0  0  0  0  0  0  0  0  0
   -7.4290   -4.5741  -27.0207 N   0  0  0  0  0  0  0  0  0  0  0  0
   -8.7692   -4.8940  -27.4778 C   0  0  0  0  0  0  0  0  0  0  0  0
   -9.0380   -4.2888  -28.3503 H   0  0  0  0  0  0  0  0  0  0  0  0
   -9.5096   -4.7214  -26.6901 H   0  0  0  0  0  0  0  0  0  0  0  0
   -8.7830   -5.9508  -27.7535 H   0  0  0  0  0  0  0  0  0  0  0  0
   -6.5819   -6.5403  -26.8216 H   0  0  0  0  0  0  0  0  0  0  0  0
   -4.3961   -5.0602  -25.9376 H   0  0  0  0  0  0  0  0  0  0  0  0
   -8.3685   -2.0540  -27.7309 H   0  0  0  0  0  0  0  0  0  0  0  0
   -7.0129   -1.2454  -26.9117 H   0  0  0  0  0  0  0  0  0  0  0  0
   -9.9622   -1.8014  -25.8876 C   0  0  0  0  0  0  0  0  0  0  0  0
  -10.4890   -2.1137  -26.9511 O   0  0  0  0  0  0  0  0  0  0  0  0
  -10.7813   -1.3995  -24.7075 C   0  0  0  0  0  0  0  0  0  0  0  0
  -12.1533   -1.2160  -24.8960 C   0  0  0  0  0  0  0  0  0  0  0  0
  -12.9654   -0.9091  -23.8290 C   0  0  0  0  0  0  0  0  0  0  0  0
  -12.3896   -0.7841  -22.5769 C   0  0  0  0  0  0  0  0  0  0  0  0
  -13.2257   -0.4757  -21.5838 F   0  0  0  0  0  0  0  0  0  0  0  0
  -11.0399   -0.9702  -22.3514 C   0  0  0  0  0  0  0  0  0  0  0  0
  -10.2091   -1.2653  -23.4367 C   0  0  0  0  0  0  0  0  0  0  0  0
  -10.6191   -0.8885  -21.3565 H   0  0  0  0  0  0  0  0  0  0  0  0
  -14.0382   -0.7746  -23.8995 H   0  0  0  0  0  0  0  0  0  0  0  0
  -12.5695   -1.3603  -25.8873 H   0  0  0  0  0  0  0  0  0  0  0  0
   -6.9655   -1.6977  -24.4574 H   0  0  0  0  0  0  0  0  0  0  0  0
   -7.8807   -0.1709  -24.5837 H   0  0  0  0  0  0  0  0  0  0  0  0
   -6.4208   -3.0993  -21.9347 H   0  0  0  0  0  0  0  0  0  0  0  0
   -7.5680   -3.3987  -20.6196 H   0  0  0  0  0  0  0  0  0  0  0  0
   -9.4476   -3.1747  -22.0036 H   0  0  0  0  0  0  0  0  0  0  0  0
   -7.3120   -3.9745  -24.0591 H   0  0  0  0  0  0  0  0  0  0  0  0
   -8.2316   -5.0703  -23.0125 H   0  0  0  0  0  0  0  0  0  0  0  0
   -9.0613   -4.1602  -24.2878 H   0  0  0  0  0  0  0  0  0  0  0  0
  1  2  1  0
  2  3  1  0
  3  4  1  0
  4  5  1  0
  5  6  2  0
  6  7  1  0
  7  8  2  0
  8  9  1  0
  9 10  2  0
 10 11  1  0
 11 12  2  0
 12 13  1  0
 13 14  2  0
 13 15  1  0
 12 16  1  0
 11 17  1  0
 10 18  1  0
  8 19  1  0
  6 20  1  0
  4 21  1  0
 21 22  2  0
 21 23  1  0
 23 24  1  6
 24 25  1  0
 25 26  1  0
 26 27  1  0
 27 28  2  0
 28 29  1  0
 29 30  2  0
 30 31  1  0
 31 32  1  0
 32 33  1  0
 32 34  1  0
 32 35  1  0
 30 36  1  0
 29 37  1  0
 26 38  1  0
 26 39  1  0
 25 40  1  0
 40 41  2  0
 40 42  1  0
 42 43  2  0
 43 44  1  0
 44 45  2  0
 45 46  1  0
 45 47  1  0
 47 48  2  0
 47 49  1  0
 44 50  1  0
 43 51  1  0
 24 52  1  0
 24 53  1  0
  3 54  1  0
  3 55  1  0
  2 56  1  1
  1 57  1  0
  1 58  1  0
  1 59  1  0
 23  2  1  0
 31 27  1  0
 48 42  1  0
 14  5  1  0
 48 23  1  0
 14  9  1  0
M  END
>  <cnnaffinities>  (5) 
[6.14331, 6.26515, 6.13473]

>  <score>  (5) 
6.14331

>  <index>  (5) 
4

>  <Smiles>  (5) 
C([C@]1(C(N(c2c(nc(c3c(c(c(c(c23)[H])[H])[H])[H])[H])[H])C(=O)[C@]21C(N(C(c1nc(c(n1C([H])([H])[H])[H])[H])([H])[H])C(=O)c1c(c(c(F)c(c21)[H])[H])[H])([H])[H])([H])[H])[H])([H])([H])[H]

>  <h>  (5) 
<NA>

>  <Training>  (5) 
True

>  <Success>  (5) 
True

>  <enamine_searched>  (5) 
False

>  <enamine_id>  (5) 
nan

$$$$

     RDKit          3D

 58 61  0  0  0  0  0  0  0  0999 V2000
   -7.6684   -3.8912  -20.3176 C   0  0  0  0  0  0  0  0  0  0  0  0
   -7.3504   -3.5897  -21.5694 C   0  0  0  0  0  0  0  0  0  0  0  0
   -6.7244   -2.2990  -22.0244 C   0  0  0  0  0  0  0  0  0  0  0  0
   -7.3455   -1.1127  -21.4310 N   0  0  0  0  0  0  0  0  0  0  0  0
   -8.6737   -0.7565  -21.6446 C   0  0  0  0  0  0  0  0  0  0  0  0
   -9.2576   -0.0113  -20.8774 O   0  0  0  0  0  0  0  0  0  0  0  0
   -9.3399   -1.2244  -22.9426 C   0  0  2  0  0  0  0  0  0  0  0  0
   -9.7271    0.0466  -23.7384 C   0  0  0  0  0  0  0  0  0  0  0  0
  -10.8066   -0.1820  -24.6846 N   0  0  0  0  0  0  0  0  0  0  0  0
  -10.5530    0.0295  -26.0959 C   0  0  0  0  0  0  0  0  0  0  0  0
   -9.5246   -0.9783  -26.6278 C   0  0  0  0  0  0  0  0  0  0  0  0
   -8.3307   -0.7172  -26.6634 O   0  0  0  0  0  0  0  0  0  0  0  0
  -10.0115   -2.1932  -26.9909 N   0  0  0  0  0  0  0  0  0  0  0  0
   -9.1020   -3.2557  -27.3864 C   0  0  0  0  0  0  0  0  0  0  0  0
   -8.3910   -3.4770  -26.5836 H   0  0  0  0  0  0  0  0  0  0  0  0
   -9.6825   -4.1546  -27.6062 H   0  0  0  0  0  0  0  0  0  0  0  0
   -8.5364   -2.9719  -28.2796 H   0  0  0  0  0  0  0  0  0  0  0  0
  -10.9994   -2.3818  -26.9355 H   0  0  0  0  0  0  0  0  0  0  0  0
  -11.5191   -0.0337  -26.6016 H   0  0  0  0  0  0  0  0  0  0  0  0
  -10.1411    1.0310  -26.2354 H   0  0  0  0  0  0  0  0  0  0  0  0
  -12.0072   -0.7749  -24.3133 C   0  0  0  0  0  0  0  0  0  0  0  0
  -13.0556   -0.5582  -24.9064 O   0  0  0  0  0  0  0  0  0  0  0  0
  -11.8691   -1.7519  -23.2452 C   0  0  0  0  0  0  0  0  0  0  0  0
  -12.9501   -2.6299  -22.9388 C   0  0  0  0  0  0  0  0  0  0  0  0
  -12.4969   -3.7050  -22.3650 C   0  0  0  0  0  0  0  0  0  0  0  0
  -12.6912   -3.7912  -21.9455 C   0  0  0  0  0  0  0  0  0  0  0  0
  -13.1113   -4.0568  -20.2239 Cl  0  0  0  0  0  0  0  0  0  0  0  0
  -10.5820   -3.3368  -22.1284 C   0  0  0  0  0  0  0  0  0  0  0  0
  -10.5781   -2.1263  -22.7061 C   0  0  0  0  0  0  0  0  0  0  0  0
   -9.6690   -3.8262  -21.7578 H   0  0  0  0  0  0  0  0  0  0  0  0
  -12.1761   -4.8159  -22.2561 H   0  0  0  0  0  0  0  0  0  0  0  0
  -13.8821   -2.5199  -23.4782 H   0  0  0  0  0  0  0  0  0  0  0  0
   -9.9774    0.8441  -23.0216 H   0  0  0  0  0  0  0  0  0  0  0  0
   -8.8504    0.3569  -24.3136 H   0  0  0  0  0  0  0  0  0  0  0  0
   -8.6195   -1.8007  -23.5306 H   0  0  0  0  0  0  0  0  0  0  0  0
   -6.6823   -0.5204  -20.3268 C   0  0  0  0  0  0  0  0  0  0  0  0
   -7.1429   -0.6783  -19.0468 C   0  0  0  0  0  0  0  0  0  0  0  0
   -6.4602   -0.2964  -17.9358 N   0  0  0  0  0  0  0  0  0  0  0  0
   -5.3067    0.3055  -18.1193 C   0  0  0  0  0  0  0  0  0  0  0  0
   -4.7506    0.6030  -19.3972 C   0  0  0  0  0  0  0  0  0  0  0  0
   -3.5296    1.3115  -19.5542 C   0  0  0  0  0  0  0  0  0  0  0  0
   -3.0585    1.6115  -20.8023 C   0  0  0  0  0  0  0  0  0  0  0  0
   -3.7697    1.2046  -21.9538 C   0  0  0  0  0  0  0  0  0  0  0  0
   -4.9432    0.5034  -21.8287 C   0  0  0  0  0  0  0  0  0  0  0  0
   -5.4594    0.1858  -20.5442 C   0  0  0  0  0  0  0  0  0  0  0  0
   -5.4984    0.1988  -22.7110 H   0  0  0  0  0  0  0  0  0  0  0  0
   -3.3888    1.4584  -22.9386 H   0  0  0  0  0  0  0  0  0  0  0  0
   -2.1397    2.1778  -20.9161 H   0  0  0  0  0  0  0  0  0  0  0  0
   -3.0012    1.6296  -18.6584 H   0  0  0  0  0  0  0  0  0  0  0  0
   -4.7593    0.6059  -17.2262 H   0  0  0  0  0  0  0  0  0  0  0  0
   -8.1006   -1.1664  -18.8732 H   0  0  0  0  0  0  0  0  0  0  0  0
   -6.8141   -2.2935  -23.1102 H   0  0  0  0  0  0  0  0  0  0  0  0
   -5.6612   -2.2692  -21.7703 H   0  0  0  0  0  0  0  0  0  0  0  0
   -7.6984   -4.5202  -22.7425 C   0  0  0  0  0  0  0  0  0  0  0  0
   -7.9698   -5.7000  -22.4611 O   0  0  0  0  0  0  0  0  0  0  0  0
   -7.6535   -3.9711  -23.8725 O   0  0  0  0  0  1  0  0  0  0  0  0
   -8.2698   -4.7610  -20.0638 H   0  0  0  0  0  0  0  0  0  0  0  0
   -7.3292   -3.2694  -19.4919 H   0  0  0  0  0  0  0  0  0  0  0  0
  1  2  2  0
  2  3  1  0
  3  4  1  0
  4  5  1  0
  5  6  2  0
  5  7  1  0
  7  8  1  0
  8  9  1  0
  9 10  1  0
 10 11  1  0
 11 12  2  0
 11 13  1  0
 13 14  1  0
 14 15  1  0
 14 16  1  0
 14 17  1  0
 13 18  1  0
 10 19  1  0
 10 20  1  0
  9 21  1  0
 21 22  2  0
 21 23  1  0
 23 24  2  0
 24 25  1  0
 25 26  2  0
 26 27  1  0
 26 28  1  0
 28 29  2  0
 28 30  1  0
 25 31  1  0
 24 32  1  0
  8 33  1  0
  8 34  1  0
  7 35  1  6
  4 36  1  0
 36 37  2  0
 37 38  1  0
 38 39  2  0
 39 40  1  0
 40 41  2  0
 41 42  1  0
 42 43  2  0
 43 44  1  0
 44 45  2  0
 44 46  1  0
 43 47  1  0
 42 48  1  0
 41 49  1  0
 39 50  1  0
 37 51  1  0
  3 52  1  0
  3 53  1  0
  2 54  1  0
 54 55  2  0
 54 56  1  0
  1 57  1  0
  1 58  1  0
 29  7  1  0
 45 36  1  0
 29 23  1  0
 45 40  1  0
M  CHG  1  56  -1
M  END
>  <cnnaffinities>  (6) 
[5.67246]

>  <score>  (6) 
5.67246

>  <index>  (6) 
5

>  <Smiles>  (6) 
C(=C(C(N(C(=O)[C@@]1(C(N(C(C(=O)N(C([H])([H])[H])[H])([H])[H])C(=O)c2c(c(c(Cl)c(c12)[H])[H])[H])([H])[H])[H])c1c(nc(c2c(c(c(c(c12)[H])[H])[H])[H])[H])[H])([H])[H])C(=O)[O-])([H])[H]

>  <h>  (6) 
<NA>

>  <Training>  (6) 
True

>  <Success>  (6) 
True

>  <enamine_searched>  (6) 
False

>  <enamine_id>  (6) 
nan

$$$$

     RDKit          3D

 43 45  0  0  0  0  0  0  0  0999 V2000
   -9.0673   -7.9899  -25.1234 C   0  0  0  0  0  0  0  0  0  0  0  0
   -9.3439   -6.4912  -25.2259 C   0  0  0  0  0  0  0  0  0  0  0  0
   -8.9637   -5.6914  -23.9710 C   0  0  0  0  0  0  0  0  0  0  0  0
   -7.5102   -5.8867  -23.5160 C   0  0  0  0  0  0  0  0  0  0  0  0
   -7.2949   -5.0679  -22.2537 C   0  0  0  0  0  0  0  0  0  0  0  0
   -7.5413   -3.6470  -22.4904 N   0  0  0  0  0  0  0  0  0  0  0  0
   -6.7488   -2.7815  -21.7670 C   0  0  0  0  0  0  0  0  0  0  0  0
   -5.5930   -3.0630  -21.4872 O   0  0  0  0  0  0  0  0  0  0  0  0
   -7.3950   -1.4819  -21.2788 C   0  0  0  0  0  0  0  0  0  0  0  0
   -6.5871   -0.8375  -20.1915 C   0  0  0  0  0  0  0  0  0  0  0  0
   -6.9050   -1.0545  -18.8727 C   0  0  0  0  0  0  0  0  0  0  0  0
   -6.2323   -0.5425  -17.8060 N   0  0  0  0  0  0  0  0  0  0  0  0
   -5.1924    0.2062  -18.0727 C   0  0  0  0  0  0  0  0  0  0  0  0
   -4.7359    0.5029  -19.3855 C   0  0  0  0  0  0  0  0  0  0  0  0
   -3.6122    1.3341  -19.6199 C   0  0  0  0  0  0  0  0  0  0  0  0
   -3.2094    1.6106  -20.8963 C   0  0  0  0  0  0  0  0  0  0  0  0
   -3.9082    1.0658  -21.9955 C   0  0  0  0  0  0  0  0  0  0  0  0
   -4.9948    0.2518  -21.7960 C   0  0  0  0  0  0  0  0  0  0  0  0
   -5.4440   -0.0417  -20.4798 C   0  0  0  0  0  0  0  0  0  0  0  0
   -5.5190   -0.1688  -22.6473 H   0  0  0  0  0  0  0  0  0  0  0  0
   -3.5887    1.3062  -23.0044 H   0  0  0  0  0  0  0  0  0  0  0  0
   -2.3556    2.2578  -21.0732 H   0  0  0  0  0  0  0  0  0  0  0  0
   -3.0983    1.7599  -18.7624 H   0  0  0  0  0  0  0  0  0  0  0  0
   -4.6441    0.6257  -17.2259 H   0  0  0  0  0  0  0  0  0  0  0  0
   -7.7626   -1.6732  -18.6133 H   0  0  0  0  0  0  0  0  0  0  0  0
   -7.5504   -0.8054  -22.1313 H   0  0  0  0  0  0  0  0  0  0  0  0
   -8.3874   -1.7457  -20.8901 H   0  0  0  0  0  0  0  0  0  0  0  0
   -8.9384   -3.4095  -22.8604 C   0  0  0  0  0  0  0  0  0  0  0  0
   -9.2617   -4.1917  -24.1404 C   0  0  0  0  0  0  0  0  0  0  0  0
   -8.6758   -3.7914  -24.9808 H   0  0  0  0  0  0  0  0  0  0  0  0
  -10.3172   -4.0367  -24.3975 H   0  0  0  0  0  0  0  0  0  0  0  0
   -9.6050   -3.7684  -22.0492 H   0  0  0  0  0  0  0  0  0  0  0  0
   -9.1496   -2.3435  -23.0018 H   0  0  0  0  0  0  0  0  0  0  0  0
   -8.0364   -5.4215  -21.5114 H   0  0  0  0  0  0  0  0  0  0  0  0
   -6.2970   -5.1740  -21.8217 H   0  0  0  0  0  0  0  0  0  0  0  0
   -6.8082   -5.6055  -24.3163 H   0  0  0  0  0  0  0  0  0  0  0  0
   -7.3215   -6.9384  -23.2639 H   0  0  0  0  0  0  0  0  0  0  0  0
   -9.5706   -6.0364  -23.1227 H   0  0  0  0  0  0  0  0  0  0  0  0
  -10.4109   -6.3175  -25.4215 H   0  0  0  0  0  0  0  0  0  0  0  0
   -8.7856   -6.0793  -26.0849 H   0  0  0  0  0  0  0  0  0  0  0  0
   -9.5886   -8.4659  -24.2807 H   0  0  0  0  0  0  0  0  0  0  0  0
   -7.9941   -8.1448  -24.9751 H   0  0  0  0  0  0  0  0  0  0  0  0
   -9.3741   -8.5107  -26.0390 H   0  0  0  0  0  0  0  0  0  0  0  0
  1  2  1  0
  2  3  1  0
  3  4  1  0
  4  5  1  0
  5  6  1  0
  6  7  1  0
  7  8  2  0
  7  9  1  0
  9 10  1  0
 10 11  2  0
 11 12  1  0
 12 13  2  0
 13 14  1  0
 14 15  2  0
 15 16  1  0
 16 17  2  0
 17 18  1  0
 18 19  2  0
 18 20  1  0
 17 21  1  0
 16 22  1  0
 15 23  1  0
 13 24  1  0
 11 25  1  0
  9 26  1  0
  9 27  1  0
  6 28  1  0
 28 29  1  0
 29 30  1  0
 29 31  1  0
 28 32  1  0
 28 33  1  0
  5 34  1  0
  5 35  1  0
  4 36  1  0
  4 37  1  0
  3 38  1  0
  2 39  1  0
  2 40  1  0
  1 41  1  0
  1 42  1  0
  1 43  1  0
 29  3  1  0
 19 10  1  0
 19 14  1  0
M  END
>  <cnnaffinities>  (7) 
[4.41727, 4.41396, 4.74506, 4.87841]

>  <score>  (7) 
4.41727

>  <index>  (7) 
6

>  <Smiles>  (7) 
C(C(C1(C(C(N(C(=O)C(c2c(nc(c3c(c(c(c(c23)[H])[H])[H])[H])[H])[H])([H])[H])C(C1([H])[H])([H])[H])([H])[H])([H])[H])[H])([H])[H])([H])([H])[H]

>  <h>  (7) 
<NA>

>  <Training>  (7) 
True

>  <Success>  (7) 
True

>  <enamine_searched>  (7) 
False

>  <enamine_id>  (7) 
nan

$$$$

     RDKit          3D

 44 47  0  0  0  0  0  0  0  0999 V2000
   -8.4144   -7.8677  -23.5342 C   0  0  0  0  0  0  0  0  0  0  0  0
   -8.7928   -7.3371  -24.9122 C   0  0  0  0  0  0  0  0  0  0  0  0
   -9.2577   -5.5972  -24.9503 S   0  0  0  0  0  0  0  0  0  0  0  0
  -10.5070   -5.4340  -24.2181 O   0  0  0  0  0  0  0  0  0  0  0  0
   -9.1837   -5.1454  -26.3249 O   0  0  0  0  0  0  0  0  0  0  0  0
   -7.9964   -4.8250  -24.1291 N   0  0  0  0  0  0  0  0  0  0  0  0
   -7.9581   -3.3338  -24.2501 C   0  0  0  0  0  0  0  0  0  0  0  0
   -8.0403   -3.1959  -22.7100 C   0  0  0  0  0  0  0  0  0  0  0  0
   -8.0697   -4.7404  -22.6499 C   0  0  0  0  0  0  0  0  0  0  0  0
   -7.1595   -5.1496  -22.2080 H   0  0  0  0  0  0  0  0  0  0  0  0
   -8.9589   -5.1847  -22.1952 H   0  0  0  0  0  0  0  0  0  0  0  0
   -6.8276   -2.5619  -22.0477 C   0  0  0  0  0  0  0  0  0  0  0  0
   -5.6700   -2.8948  -22.1644 O   0  0  0  0  0  0  0  0  0  0  0  0
   -7.3136   -1.4970  -21.2842 N   0  0  0  0  0  0  0  0  0  0  0  0
   -6.5969   -0.8643  -20.2316 C   0  0  0  0  0  0  0  0  0  0  0  0
   -6.9541   -1.0680  -18.9189 C   0  0  0  0  0  0  0  0  0  0  0  0
   -6.2813   -0.5576  -17.8555 N   0  0  0  0  0  0  0  0  0  0  0  0
   -5.2339    0.1852  -18.1175 C   0  0  0  0  0  0  0  0  0  0  0  0
   -4.7844    0.4926  -19.4296 C   0  0  0  0  0  0  0  0  0  0  0  0
   -3.6599    1.3241  -19.6429 C   0  0  0  0  0  0  0  0  0  0  0  0
   -3.2627    1.6341  -20.9115 C   0  0  0  0  0  0  0  0  0  0  0  0
   -3.9686    1.1341  -22.0289 C   0  0  0  0  0  0  0  0  0  0  0  0
   -5.0586    0.3204  -21.8509 C   0  0  0  0  0  0  0  0  0  0  0  0
   -5.4829   -0.0304  -20.5358 C   0  0  0  0  0  0  0  0  0  0  0  0
   -5.6021   -0.0519  -22.7157 H   0  0  0  0  0  0  0  0  0  0  0  0
   -3.6485    1.4082  -23.0311 H   0  0  0  0  0  0  0  0  0  0  0  0
   -2.4047    2.2787  -21.0696 H   0  0  0  0  0  0  0  0  0  0  0  0
   -3.1474    1.7150  -18.7688 H   0  0  0  0  0  0  0  0  0  0  0  0
   -4.6755    0.6000  -17.2762 H   0  0  0  0  0  0  0  0  0  0  0  0
   -7.8115   -1.6915  -18.6734 H   0  0  0  0  0  0  0  0  0  0  0  0
   -8.6996   -1.3284  -21.4596 C   0  0  0  0  0  0  0  0  0  0  0  0
   -9.3581   -0.3965  -21.0467 O   0  0  0  0  0  0  0  0  0  0  0  0
   -9.1316   -2.4167  -22.1695 N   0  0  0  0  0  0  0  0  0  0  0  0
  -10.5355   -2.7052  -22.3914 C   0  0  0  0  0  0  0  0  0  0  0  0
  -11.1254   -1.9150  -21.9189 H   0  0  0  0  0  0  0  0  0  0  0  0
  -10.8010   -3.6691  -21.9430 H   0  0  0  0  0  0  0  0  0  0  0  0
  -10.7663   -2.7283  -23.4623 H   0  0  0  0  0  0  0  0  0  0  0  0
   -8.8001   -2.8959  -24.7954 H   0  0  0  0  0  0  0  0  0  0  0  0
   -7.0044   -3.0038  -24.6620 H   0  0  0  0  0  0  0  0  0  0  0  0
   -9.6881   -7.8340  -25.3049 H   0  0  0  0  0  0  0  0  0  0  0  0
   -7.9822   -7.4351  -25.6394 H   0  0  0  0  0  0  0  0  0  0  0  0
   -8.4815   -8.9562  -23.4990 H   0  0  0  0  0  0  0  0  0  0  0  0
   -9.0947   -7.4823  -22.7810 H   0  0  0  0  0  0  0  0  0  0  0  0
   -7.4029   -7.5778  -23.2382 H   0  0  0  0  0  0  0  0  0  0  0  0
  1  2  1  0
  2  3  1  0
  3  4  2  0
  3  5  2  0
  3  6  1  0
  6  7  1  0
  7  8  1  0
  8  9  1  0
  9 10  1  0
  9 11  1  0
  8 12  1  0
 12 13  2  0
 12 14  1  0
 14 15  1  0
 15 16  2  0
 16 17  1  0
 17 18  2  0
 18 19  1  0
 19 20  2  0
 20 21  1  0
 21 22  2  0
 22 23  1  0
 23 24  2  0
 23 25  1  0
 22 26  1  0
 21 27  1  0
 20 28  1  0
 18 29  1  0
 16 30  1  0
 14 31  1  0
 31 32  2  0
 31 33  1  0
 33 34  1  0
 34 35  1  0
 34 36  1  0
 34 37  1  0
  7 38  1  0
  7 39  1  0
  2 40  1  0
  2 41  1  0
  1 42  1  0
  1 43  1  0
  1 44  1  0
  9  6  1  0
 24 15  1  0
 33  8  1  0
 24 19  1  0
M  END
>  <cnnaffinities>  (8) 
[5.41258, 5.2921, 5.18889]

>  <score>  (8) 
5.41258

>  <index>  (8) 
7

>  <Smiles>  (8) 
C(C(S(=O)(=O)N1C(C2(C1([H])[H])C(=O)N(c1c(nc(c3c(c(c(c(c13)[H])[H])[H])[H])[H])[H])C(=O)N2C([H])([H])[H])([H])[H])([H])[H])([H])([H])[H]

>  <h>  (8) 
<NA>

>  <Training>  (8) 
True

>  <Success>  (8) 
True

>  <enamine_searched>  (8) 
False

>  <enamine_id>  (8) 
nan

$$$$

     RDKit          3D

 60 64  0  0  0  0  0  0  0  0999 V2000
   -8.1162    0.0341  -29.7895 C   0  0  0  0  0  0  0  0  0  0  0  0
   -8.1880   -1.1131  -28.9083 N   0  0  0  0  0  0  0  0  0  0  0  0
   -7.4288   -1.1069  -27.7773 C   0  0  0  0  0  0  0  0  0  0  0  0
   -6.6450   -0.2100  -27.5054 O   0  0  0  0  0  0  0  0  0  0  0  0
   -7.6399   -2.3210  -26.8599 C   0  0  0  0  0  0  0  0  0  0  0  0
   -8.4756   -1.9626  -25.7233 N   0  0  0  0  0  0  0  0  0  0  0  0
   -7.8806   -1.3058  -24.5539 C   0  0  0  0  0  0  0  0  0  0  0  0
   -8.6992   -1.5624  -23.2541 C   0  0  2  0  0  0  0  0  0  0  0  0
   -8.1274   -0.6381  -22.1631 C   0  0  0  0  0  0  0  0  0  0  0  0
   -8.2416    0.5695  -22.1162 O   0  0  0  0  0  0  0  0  0  0  0  0
   -7.4236   -1.3895  -21.2355 N   0  0  0  0  0  0  0  0  0  0  0  0
   -6.6221   -0.8132  -20.2148 C   0  0  0  0  0  0  0  0  0  0  0  0
   -6.9165   -1.0646  -18.8972 C   0  0  0  0  0  0  0  0  0  0  0  0
   -6.2384   -0.5588  -17.8378 N   0  0  0  0  0  0  0  0  0  0  0  0
   -5.2059    0.2066  -18.0987 C   0  0  0  0  0  0  0  0  0  0  0  0
   -4.7597    0.5155  -19.4132 C   0  0  0  0  0  0  0  0  0  0  0  0
   -3.6227    1.3389  -19.6271 C   0  0  0  0  0  0  0  0  0  0  0  0
   -3.1961    1.6095  -20.8968 C   0  0  0  0  0  0  0  0  0  0  0  0
   -3.8816    1.0655  -22.0049 C   0  0  0  0  0  0  0  0  0  0  0  0
   -4.9842    0.2718  -21.8223 C   0  0  0  0  0  0  0  0  0  0  0  0
   -5.4687   -0.0129  -20.5135 C   0  0  0  0  0  0  0  0  0  0  0  0
   -5.5056   -0.1284  -22.6849 H   0  0  0  0  0  0  0  0  0  0  0  0
   -3.5329    1.2838  -23.0088 H   0  0  0  0  0  0  0  0  0  0  0  0
   -2.3295    2.2418  -21.0602 H   0  0  0  0  0  0  0  0  0  0  0  0
   -3.1132    1.7527  -18.7614 H   0  0  0  0  0  0  0  0  0  0  0  0
   -4.6561    0.6142  -17.2505 H   0  0  0  0  0  0  0  0  0  0  0  0
   -7.7672   -1.6961  -18.6485 H   0  0  0  0  0  0  0  0  0  0  0  0
   -7.3881   -2.8123  -21.5349 C   0  0  0  0  0  0  0  0  0  0  0  0
   -8.5213   -2.9629  -22.5567 C   0  0  2  0  0  0  0  0  0  0  0  0
   -8.3917   -4.1744  -23.4616 C   0  0  0  0  0  0  0  0  0  0  0  0
   -7.1335   -4.1577  -24.1021 O   0  0  0  0  0  0  0  0  0  0  0  0
   -6.9572   -5.2672  -24.9430 C   0  0  0  0  0  0  0  0  0  0  0  0
   -6.9943   -6.2096  -24.3765 H   0  0  0  0  0  0  0  0  0  0  0  0
   -5.9729   -5.1828  -25.4114 H   0  0  0  0  0  0  0  0  0  0  0  0
   -7.7287   -5.3029  -25.7280 H   0  0  0  0  0  0  0  0  0  0  0  0
   -8.5018   -5.0980  -22.8665 H   0  0  0  0  0  0  0  0  0  0  0  0
   -9.2024   -4.1568  -24.2047 H   0  0  0  0  0  0  0  0  0  0  0  0
   -9.4436   -3.1056  -21.9763 H   0  0  0  0  0  0  0  0  0  0  0  0
   -7.5660   -3.3989  -20.6244 H   0  0  0  0  0  0  0  0  0  0  0  0
   -6.4142   -3.1207  -21.9410 H   0  0  0  0  0  0  0  0  0  0  0  0
  -10.1612   -1.2734  -23.5860 C   0  0  0  0  0  0  0  0  0  0  0  0
  -11.0962   -1.0421  -22.5755 C   0  0  0  0  0  0  0  0  0  0  0  0
  -12.4487   -0.9591  -22.8808 C   0  0  0  0  0  0  0  0  0  0  0  0
  -13.6420   -1.1152  -21.6315 Cl  0  0  0  0  0  0  0  0  0  0  0  0
  -12.9052   -0.9045  -24.1928 C   0  0  0  0  0  0  0  0  0  0  0  0
  -11.9872   -1.1132  -25.1914 C   0  0  0  0  0  0  0  0  0  0  0  0
  -10.6528   -1.3593  -24.8899 C   0  0  0  0  0  0  0  0  0  0  0  0
   -9.7991   -1.8284  -26.0023 C   0  0  0  0  0  0  0  0  0  0  0  0
  -10.2667   -2.0989  -27.1139 O   0  0  0  0  0  0  0  0  0  0  0  0
  -12.2978   -1.1995  -26.2220 H   0  0  0  0  0  0  0  0  0  0  0  0
  -13.9548   -0.7486  -24.4112 H   0  0  0  0  0  0  0  0  0  0  0  0
  -10.7591   -0.9318  -21.5570 H   0  0  0  0  0  0  0  0  0  0  0  0
   -6.8596   -1.6815  -24.4483 H   0  0  0  0  0  0  0  0  0  0  0  0
   -7.8363   -0.2120  -24.7046 H   0  0  0  0  0  0  0  0  0  0  0  0
   -6.6847   -2.7046  -26.4920 H   0  0  0  0  0  0  0  0  0  0  0  0
   -8.1369   -3.1245  -27.4134 H   0  0  0  0  0  0  0  0  0  0  0  0
   -9.0349   -1.6688  -28.9026 H   0  0  0  0  0  0  0  0  0  0  0  0
   -8.3818    0.9661  -29.2729 H   0  0  0  0  0  0  0  0  0  0  0  0
   -8.7979   -0.1152  -30.6286 H   0  0  0  0  0  0  0  0  0  0  0  0
   -7.0964    0.1278  -30.1737 H   0  0  0  0  0  0  0  0  0  0  0  0
  1  2  1  0
  2  3  1  0
  3  4  2  0
  3  5  1  0
  5  6  1  0
  6  7  1  0
  8  7  1  6
  8  9  1  0
  9 10  2  0
  9 11  1  0
 11 12  1  0
 12 13  2  0
 13 14  1  0
 14 15  2  0
 15 16  1  0
 16 17  2  0
 17 18  1  0
 18 19  2  0
 19 20  1  0
 20 21  2  0
 20 22  1  0
 19 23  1  0
 18 24  1  0
 17 25  1  0
 15 26  1  0
 13 27  1  0
 11 28  1  0
 28 29  1  0
 29 30  1  0
 30 31  1  0
 31 32  1  0
 32 33  1  0
 32 34  1  0
 32 35  1  0
 30 36  1  0
 30 37  1  0
 29 38  1  1
 28 39  1  0
 28 40  1  0
  8 41  1  0
 41 42  2  0
 42 43  1  0
 43 44  1  0
 43 45  2  0
 45 46  1  0
 46 47  2  0
 47 48  1  0
 48 49  2  0
 46 50  1  0
 45 51  1  0
 42 52  1  0
  7 53  1  0
  7 54  1  0
  5 55  1  0
  5 56  1  0
  2 57  1  0
  1 58  1  0
  1 59  1  0
  1 60  1  0
 48  6  1  0
 29  8  1  0
 47 41  1  0
 21 12  1  0
 21 16  1  0
M  END
>  <cnnaffinities>  (9) 
[5.96482, 6.03799, 6.16444]

>  <score>  (9) 
5.96482

>  <index>  (9) 
8

>  <Smiles>  (9) 
C(N(C(=O)C(N1C([C@@]2(C(=O)N(c3c(nc(c4c(c(c(c(c34)[H])[H])[H])[H])[H])[H])C([C@@]2(C(OC([H])([H])[H])([H])[H])[H])([H])[H])c2c(c(Cl)c(c(c2C1=O)[H])[H])[H])([H])[H])([H])[H])[H])([H])([H])[H]

>  <h>  (9) 
<NA>

>  <Training>  (9) 
True

>  <Success>  (9) 
True

>  <enamine_searched>  (9) 
False

>  <enamine_id>  (9) 
nan

$$$$

     RDKit          3D

 41 43  0  0  0  0  0  0  0  0999 V2000
  -13.1601   -2.9150  -22.9115 C   0  0  0  0  0  0  0  0  0  0  0  0
  -11.9607   -2.0413  -23.2234 C   0  0  1  0  0  0  0  0  0  0  0  0
  -12.1536   -0.6560  -22.6456 C   0  0  0  0  0  0  0  0  0  0  0  0
  -11.3197    0.3580  -22.8354 C   0  0  0  0  0  0  0  0  0  0  0  0
  -10.0213    0.2174  -23.6021 C   0  0  0  0  0  0  0  0  0  0  0  0
   -9.0854   -0.7810  -23.0632 N   0  0  0  0  0  0  0  0  0  0  0  0
   -8.3807   -0.4080  -21.9321 C   0  0  0  0  0  0  0  0  0  0  0  0
   -8.4772    0.7172  -21.4740 O   0  0  0  0  0  0  0  0  0  0  0  0
   -7.4331   -1.4333  -21.2733 C   0  0  0  0  0  0  0  0  0  0  0  0
   -6.5793   -0.8298  -20.1818 C   0  0  0  0  0  0  0  0  0  0  0  0
   -6.8779   -1.0379  -18.8607 C   0  0  0  0  0  0  0  0  0  0  0  0
   -6.1957   -0.5338  -17.7967 N   0  0  0  0  0  0  0  0  0  0  0  0
   -5.1582    0.2219  -18.0638 C   0  0  0  0  0  0  0  0  0  0  0  0
   -4.7240    0.5336  -19.3815 C   0  0  0  0  0  0  0  0  0  0  0  0
   -3.5976    1.3638  -19.6222 C   0  0  0  0  0  0  0  0  0  0  0  0
   -3.2097    1.6579  -20.9015 C   0  0  0  0  0  0  0  0  0  0  0  0
   -3.9332    1.1301  -21.9937 C   0  0  0  0  0  0  0  0  0  0  0  0
   -5.0257    0.3224  -21.7872 C   0  0  0  0  0  0  0  0  0  0  0  0
   -5.4540    0.0011  -20.4725 C   0  0  0  0  0  0  0  0  0  0  0  0
   -5.5779   -0.0660  -22.6366 H   0  0  0  0  0  0  0  0  0  0  0  0
   -3.6226    1.3738  -23.0055 H   0  0  0  0  0  0  0  0  0  0  0  0
   -2.3527    2.3029  -21.0869 H   0  0  0  0  0  0  0  0  0  0  0  0
   -3.0584    1.7768  -18.7717 H   0  0  0  0  0  0  0  0  0  0  0  0
   -4.6010    0.6278  -17.2165 H   0  0  0  0  0  0  0  0  0  0  0  0
   -7.7285   -1.6594  -18.5853 H   0  0  0  0  0  0  0  0  0  0  0  0
   -6.7964   -1.8998  -22.0371 H   0  0  0  0  0  0  0  0  0  0  0  0
   -8.0405   -2.2447  -20.8451 H   0  0  0  0  0  0  0  0  0  0  0  0
   -9.3937   -2.1683  -23.3963 C   0  0  0  0  0  0  0  0  0  0  0  0
  -10.6648   -2.7279  -22.7560 C   0  0  0  0  0  0  0  0  0  0  0  0
  -10.5877   -2.6368  -21.6682 H   0  0  0  0  0  0  0  0  0  0  0  0
  -10.7259   -3.8072  -22.9644 H   0  0  0  0  0  0  0  0  0  0  0  0
   -8.5305   -2.7925  -23.1569 H   0  0  0  0  0  0  0  0  0  0  0  0
   -9.5110   -2.2197  -24.4812 H   0  0  0  0  0  0  0  0  0  0  0  0
  -10.2463   -0.0753  -24.6323 H   0  0  0  0  0  0  0  0  0  0  0  0
   -9.5094    1.1782  -23.6543 H   0  0  0  0  0  0  0  0  0  0  0  0
  -11.5327    1.3305  -22.3871 H   0  0  0  0  0  0  0  0  0  0  0  0
  -13.0281   -0.4976  -22.0115 H   0  0  0  0  0  0  0  0  0  0  0  0
  -11.8993   -1.9353  -24.3104 H   0  0  0  0  0  0  0  0  0  0  0  0
  -13.1016   -3.9055  -23.3704 H   0  0  0  0  0  0  0  0  0  0  0  0
  -13.1943   -3.0620  -21.8281 H   0  0  0  0  0  0  0  0  0  0  0  0
  -14.0972   -2.4538  -23.2458 H   0  0  0  0  0  0  0  0  0  0  0  0
  1  2  1  0
  2  3  1  0
  3  4  2  0
  4  5  1  0
  5  6  1  0
  6  7  1  0
  7  8  2  0
  7  9  1  0
  9 10  1  0
 10 11  2  0
 11 12  1  0
 12 13  2  0
 13 14  1  0
 14 15  2  0
 15 16  1  0
 16 17  2  0
 17 18  1  0
 18 19  2  0
 18 20  1  0
 17 21  1  0
 16 22  1  0
 15 23  1  0
 13 24  1  0
 11 25  1  0
  9 26  1  0
  9 27  1  0
  6 28  1  0
 28 29  1  0
 29 30  1  0
 29 31  1  0
 28 32  1  0
 28 33  1  0
  5 34  1  0
  5 35  1  0
  4 36  1  0
  3 37  1  0
  2 38  1  6
  1 39  1  0
  1 40  1  0
  1 41  1  0
 29  2  1  0
 19 10  1  0
 19 14  1  0
M  END
>  <cnnaffinities>  (10) 
[4.51497, 4.95298, 4.90865]

>  <score>  (10) 
4.51497

>  <index>  (10) 
9

>  <Smiles>  (10) 
C([C@]1(C(=C(C(N(C(=O)C(c2c(nc(c3c(c(c(c(c23)[H])[H])[H])[H])[H])[H])([H])[H])C(C1([H])[H])([H])[H])([H])[H])[H])[H])[H])([H])([H])[H]

>  <h>  (10) 
<NA>

>  <Training>  (10) 
True

>  <Success>  (10) 
True

>  <enamine_searched>  (10) 
False

>  <enamine_id>  (10) 
nan

$$$$

     RDKit          3D

 57 62  0  0  0  0  0  0  0  0999 V2000
   -9.9458   -0.9288  -23.5279 C   0  0  0  0  0  0  0  0  0  0  0  0
   -8.5795   -1.2564  -22.9372 C   0  0  1  0  0  0  0  0  0  0  0  0
   -8.1429   -0.3286  -21.7949 C   0  0  0  0  0  0  0  0  0  0  0  0
   -7.1823   -1.1392  -21.0574 N   0  0  0  0  0  0  0  0  0  0  0  0
   -6.3850   -0.6509  -19.9987 C   0  0  0  0  0  0  0  0  0  0  0  0
   -6.6694   -0.9391  -18.6908 C   0  0  0  0  0  0  0  0  0  0  0  0
   -6.0214   -0.3796  -17.6363 N   0  0  0  0  0  0  0  0  0  0  0  0
   -5.0303    0.4454  -17.8916 C   0  0  0  0  0  0  0  0  0  0  0  0
   -4.5749    0.7587  -19.2094 C   0  0  0  0  0  0  0  0  0  0  0  0
   -3.4471    1.5846  -19.4813 C   0  0  0  0  0  0  0  0  0  0  0  0
   -3.0477    1.8073  -20.7731 C   0  0  0  0  0  0  0  0  0  0  0  0
   -3.7401    1.2221  -21.8571 C   0  0  0  0  0  0  0  0  0  0  0  0
   -4.8298    0.4265  -21.6216 C   0  0  0  0  0  0  0  0  0  0  0  0
   -5.2744    0.1911  -20.2957 C   0  0  0  0  0  0  0  0  0  0  0  0
   -5.3506   -0.0504  -22.4437 H   0  0  0  0  0  0  0  0  0  0  0  0
   -3.4128    1.3993  -22.8780 H   0  0  0  0  0  0  0  0  0  0  0  0
   -2.1910    2.4425  -20.9825 H   0  0  0  0  0  0  0  0  0  0  0  0
   -2.9073    2.0406  -18.6537 H   0  0  0  0  0  0  0  0  0  0  0  0
   -4.5259    0.8915  -17.0313 H   0  0  0  0  0  0  0  0  0  0  0  0
   -7.4600   -1.6456  -18.4458 H   0  0  0  0  0  0  0  0  0  0  0  0
   -7.3158   -2.4876  -21.2939 C   0  0  0  0  0  0  0  0  0  0  0  0
   -6.6583   -3.3598  -20.7578 O   0  0  0  0  0  0  0  0  0  0  0  0
   -8.4318   -2.6892  -22.3218 C   0  0  1  0  0  0  0  0  0  0  0  0
   -9.6766   -3.1360  -21.5106 C   0  0  0  0  0  0  0  0  0  0  0  0
  -10.7447   -3.6510  -22.3577 N   0  0  0  0  0  0  0  0  0  0  0  0
  -12.1295   -3.5410  -21.9058 C   0  0  0  0  0  0  0  0  0  0  0  0
  -12.9868   -2.4636  -22.5077 C   0  0  0  0  0  0  0  0  0  0  0  0
  -13.8215   -1.6269  -21.8493 C   0  0  0  0  0  0  0  0  0  0  0  0
  -14.5954   -0.9769  -22.7869 N   0  0  0  0  0  4  0  0  0  0  0  0
  -14.2399   -1.4081  -24.0000 C   0  0  0  0  0  0  0  0  0  0  0  0
  -13.2466   -2.2977  -23.8545 N   0  0  0  0  0  0  0  0  0  0  0  0
  -12.7863   -2.8214  -24.5870 H   0  0  0  0  0  0  0  0  0  0  0  0
  -14.6727   -1.1083  -24.9384 H   0  0  0  0  0  0  0  0  0  0  0  0
  -15.3777   -0.3716  -22.5800 H   0  0  0  0  0  0  0  0  0  0  0  0
  -14.0044   -1.5076  -20.7942 H   0  0  0  0  0  0  0  0  0  0  0  0
  -12.5889   -4.5147  -22.0868 H   0  0  0  0  0  0  0  0  0  0  0  0
  -12.1681   -3.3423  -20.8366 H   0  0  0  0  0  0  0  0  0  0  0  0
  -10.4413   -4.5991  -23.2994 C   0  0  0  0  0  0  0  0  0  0  0  0
  -11.2569   -5.3670  -23.7699 O   0  0  0  0  0  0  0  0  0  0  0  0
   -9.0372   -4.6555  -23.7898 C   0  0  0  0  0  0  0  0  0  0  0  0
   -8.7404   -5.6226  -24.7508 C   0  0  0  0  0  0  0  0  0  0  0  0
   -7.4795   -5.6943  -25.3055 C   0  0  0  0  0  0  0  0  0  0  0  0
   -6.5193   -4.8065  -24.8322 C   0  0  0  0  0  0  0  0  0  0  0  0
   -5.2875   -4.8694  -25.3610 F   0  0  0  0  0  0  0  0  0  0  0  0
   -6.7791   -3.8751  -23.8442 C   0  0  0  0  0  0  0  0  0  0  0  0
   -8.0751   -3.7628  -23.3270 C   0  0  0  0  0  0  0  0  0  0  0  0
   -5.9673   -3.2835  -23.4407 H   0  0  0  0  0  0  0  0  0  0  0  0
   -7.2305   -6.4228  -26.0702 H   0  0  0  0  0  0  0  0  0  0  0  0
   -9.5346   -6.3071  -25.0315 H   0  0  0  0  0  0  0  0  0  0  0  0
   -9.3401   -3.8952  -20.7873 H   0  0  0  0  0  0  0  0  0  0  0  0
  -10.0993   -2.3011  -20.9438 H   0  0  0  0  0  0  0  0  0  0  0  0
   -7.6932    0.6091  -22.1345 H   0  0  0  0  0  0  0  0  0  0  0  0
   -9.0005   -0.0671  -21.1580 H   0  0  0  0  0  0  0  0  0  0  0  0
   -7.8317   -1.1895  -23.7379 H   0  0  0  0  0  0  0  0  0  0  0  0
  -10.7262   -0.9886  -22.7613 H   0  0  0  0  0  0  0  0  0  0  0  0
  -10.1954   -1.6400  -24.3215 H   0  0  0  0  0  0  0  0  0  0  0  0
   -9.9621    0.0782  -23.9572 H   0  0  0  0  0  0  0  0  0  0  0  0
  1  2  1  0
  2  3  1  0
  3  4  1  0
  4  5  1  0
  5  6  2  0
  6  7  1  0
  7  8  2  0
  8  9  1  0
  9 10  2  0
 10 11  1  0
 11 12  2  0
 12 13  1  0
 13 14  2  0
 13 15  1  0
 12 16  1  0
 11 17  1  0
 10 18  1  0
  8 19  1  0
  6 20  1  0
  4 21  1  0
 21 22  2  0
 21 23  1  0
 23 24  1  1
 24 25  1  0
 25 26  1  0
 26 27  1  0
 27 28  2  0
 28 29  1  0
 29 30  2  0
 30 31  1  0
 31 32  1  0
 30 33  1  0
 29 34  1  0
 28 35  1  0
 26 36  1  0
 26 37  1  0
 25 38  1  0
 38 39  2  0
 38 40  1  0
 40 41  2  0
 41 42  1  0
 42 43  2  0
 43 44  1  0
 43 45  1  0
 45 46  2  0
 45 47  1  0
 42 48  1  0
 41 49  1  0
 24 50  1  0
 24 51  1  0
  3 52  1  0
  3 53  1  0
  2 54  1  6
  1 55  1  0
  1 56  1  0
  1 57  1  0
 23  2  1  0
 31 27  1  0
 46 40  1  0
 14  5  1  0
 46 23  1  0
 14  9  1  0
M  CHG  1  29   1
M  END
>  <cnnaffinities>  (11) 
[6.66264]

>  <score>  (11) 
6.66264

>  <index>  (11) 
10

>  <Smiles>  (11) 
C([C@]1(C(N(c2c(nc(c3c(c(c(c(c23)[H])[H])[H])[H])[H])[H])C(=O)[C@]21C(N(C(c1c([n+](c(n1[H])[H])[H])[H])([H])[H])C(=O)c1c(c(c(F)c(c21)[H])[H])[H])([H])[H])([H])[H])[H])([H])([H])[H]

>  <h>  (11) 
<NA>

>  <Training>  (11) 
True

>  <Success>  (11) 
True

>  <enamine_searched>  (11) 
False

>  <enamine_id>  (11) 
nan

$$$$

     RDKit          3D

 48 52  0  0  0  0  0  0  0  0999 V2000
  -10.4789   -2.5797  -22.3285 C   0  0  0  0  0  0  0  0  0  0  0  0
   -9.0730   -2.3089  -22.0898 N   0  0  0  0  0  0  0  0  0  0  0  0
   -8.6724   -1.2000  -21.3903 C   0  0  0  0  0  0  0  0  0  0  0  0
   -9.3485   -0.2857  -20.9756 O   0  0  0  0  0  0  0  0  0  0  0  0
   -7.2795   -1.3056  -21.2450 N   0  0  0  0  0  0  0  0  0  0  0  0
   -6.5811   -0.6796  -20.1842 C   0  0  0  0  0  0  0  0  0  0  0  0
   -6.9509   -0.9161  -18.8852 C   0  0  0  0  0  0  0  0  0  0  0  0
   -6.2755   -0.4428  -17.8112 N   0  0  0  0  0  0  0  0  0  0  0  0
   -5.2111    0.2881  -18.0469 C   0  0  0  0  0  0  0  0  0  0  0  0
   -4.7327    0.6101  -19.3502 C   0  0  0  0  0  0  0  0  0  0  0  0
   -3.5788    1.4077  -19.5595 C   0  0  0  0  0  0  0  0  0  0  0  0
   -3.1703    1.7041  -20.8306 C   0  0  0  0  0  0  0  0  0  0  0  0
   -3.8797    1.2158  -21.9511 C   0  0  0  0  0  0  0  0  0  0  0  0
   -4.9930    0.4345  -21.7786 C   0  0  0  0  0  0  0  0  0  0  0  0
   -5.4399    0.1180  -20.4648 C   0  0  0  0  0  0  0  0  0  0  0  0
   -5.5405    0.0477  -22.6349 H   0  0  0  0  0  0  0  0  0  0  0  0
   -3.5453    1.4676  -22.9532 H   0  0  0  0  0  0  0  0  0  0  0  0
   -2.3040    2.3386  -20.9874 H   0  0  0  0  0  0  0  0  0  0  0  0
   -3.0519    1.7917  -18.6912 H   0  0  0  0  0  0  0  0  0  0  0  0
   -4.6709    0.6576  -17.1746 H   0  0  0  0  0  0  0  0  0  0  0  0
   -7.8201   -1.5351  -18.6683 H   0  0  0  0  0  0  0  0  0  0  0  0
   -6.7758   -2.4539  -21.8513 C   0  0  0  0  0  0  0  0  0  0  0  0
   -5.6281   -2.8222  -21.8061 O   0  0  0  0  0  0  0  0  0  0  0  0
   -7.9573   -3.1327  -22.5115 C   0  0  0  0  0  0  0  0  0  0  0  0
   -7.9716   -4.6601  -22.2982 C   0  0  0  0  0  0  0  0  0  0  0  0
   -7.7762   -4.8674  -23.7690 N   0  0  0  0  0  0  0  0  0  0  0  0
   -8.9939   -5.7582  -24.5412 S   0  0  0  0  0  0  0  0  0  0  0  0
   -8.7897   -7.1478  -24.1873 O   0  0  0  0  0  0  0  0  0  0  0  0
  -10.2607   -5.0857  -24.2875 O   0  0  0  0  0  0  0  0  0  0  0  0
   -8.6725   -5.5523  -26.2739 C   0  0  0  0  0  0  0  0  0  0  0  0
   -9.1454   -4.4094  -26.9142 C   0  0  0  0  0  0  0  0  0  0  0  0
   -8.9715   -4.2881  -28.2863 C   0  0  0  0  0  0  0  0  0  0  0  0
   -8.3804   -5.3152  -29.0115 C   0  0  0  0  0  0  0  0  0  0  0  0
   -7.9078   -6.4469  -28.3578 C   0  0  0  0  0  0  0  0  0  0  0  0
   -8.0330   -6.5679  -26.9747 C   0  0  0  0  0  0  0  0  0  0  0  0
   -7.6558   -7.4373  -26.4427 H   0  0  0  0  0  0  0  0  0  0  0  0
   -7.4462   -7.2437  -28.9269 H   0  0  0  0  0  0  0  0  0  0  0  0
   -8.3022   -5.2283  -30.0904 H   0  0  0  0  0  0  0  0  0  0  0  0
   -9.3067   -3.3959  -28.7992 H   0  0  0  0  0  0  0  0  0  0  0  0
   -9.6779   -3.6444  -26.3510 H   0  0  0  0  0  0  0  0  0  0  0  0
   -7.7741   -3.4068  -24.0145 C   0  0  0  0  0  0  0  0  0  0  0  0
   -8.5946   -3.0296  -24.6288 H   0  0  0  0  0  0  0  0  0  0  0  0
   -6.8180   -3.0745  -24.4195 H   0  0  0  0  0  0  0  0  0  0  0  0
   -8.8857   -5.0821  -21.8723 H   0  0  0  0  0  0  0  0  0  0  0  0
   -7.0846   -4.9895  -21.7556 H   0  0  0  0  0  0  0  0  0  0  0  0
  -10.7610   -3.5740  -21.9657 H   0  0  0  0  0  0  0  0  0  0  0  0
  -10.7276   -2.4862  -23.3915 H   0  0  0  0  0  0  0  0  0  0  0  0
  -11.0448   -1.8310  -21.7696 H   0  0  0  0  0  0  0  0  0  0  0  0
  1  2  1  0
  2  3  1  0
  3  4  2  0
  3  5  1  0
  5  6  1  0
  6  7  2  0
  7  8  1  0
  8  9  2  0
  9 10  1  0
 10 11  2  0
 11 12  1  0
 12 13  2  0
 13 14  1  0
 14 15  2  0
 14 16  1  0
 13 17  1  0
 12 18  1  0
 11 19  1  0
  9 20  1  0
  7 21  1  0
  5 22  1  0
 22 23  2  0
 22 24  1  0
 24 25  1  0
 25 26  1  0
 26 27  1  0
 27 28  2  0
 27 29  2  0
 27 30  1  0
 30 31  2  0
 31 32  1  0
 32 33  2  0
 33 34  1  0
 34 35  2  0
 35 36  1  0
 34 37  1  0
 33 38  1  0
 32 39  1  0
 31 40  1  0
 26 41  1  0
 41 42  1  0
 41 43  1  0
 25 44  1  0
 25 45  1  0
  1 46  1  0
  1 47  1  0
  1 48  1  0
 24  2  1  0
 35 30  1  0
 15  6  1  0
 41 24  1  0
 15 10  1  0
M  END
>  <cnnaffinities>  (12) 
[5.40755]

>  <score>  (12) 
5.40755

>  <index>  (12) 
11

>  <Smiles>  (12) 
C(N1C(=O)N(c2c(nc(c3c(c(c(c(c23)[H])[H])[H])[H])[H])[H])C(=O)C21C(N(S(=O)(=O)c1c(c(c(c(c1[H])[H])[H])[H])[H])C2([H])[H])([H])[H])([H])([H])[H]

>  <h>  (12) 
<NA>

>  <Training>  (12) 
True

>  <Success>  (12) 
True

>  <enamine_searched>  (12) 
False

>  <enamine_id>  (12) 
nan

$$$$

     RDKit          3D

 76 82  0  0  0  0  0  0  0  0999 V2000
  -12.4831    0.3542  -24.5701 O   0  0  0  0  0  0  0  0  0  0  0  0
  -11.6838   -0.4101  -24.0497 C   0  0  0  0  0  0  0  0  0  0  0  0
  -12.0399   -1.3385  -22.9332 C   0  0  0  0  0  0  0  0  0  0  0  0
  -13.2410   -1.1554  -22.2499 C   0  0  0  0  0  0  0  0  0  0  0  0
  -13.6022   -2.0438  -21.2635 C   0  0  0  0  0  0  0  0  0  0  0  0
  -12.8118   -3.1788  -21.0615 C   0  0  0  0  0  0  0  0  0  0  0  0
  -13.3606   -4.4708  -20.0429 Cl  0  0  0  0  0  0  0  0  0  0  0  0
  -11.5874   -3.3195  -21.6722 C   0  0  0  0  0  0  0  0  0  0  0  0
  -11.1198   -2.3036  -22.5005 C   0  0  0  0  0  0  0  0  0  0  0  0
   -9.6476   -2.0813  -22.7208 C   0  0  1  0  0  0  0  0  0  0  0  0
   -9.4918   -1.5152  -24.1464 C   0  0  0  0  0  0  0  0  0  0  0  0
  -10.3528   -0.3758  -24.3656 N   0  0  0  0  0  0  0  0  0  0  0  0
   -9.8453    0.9471  -24.6636 C   0  0  0  0  0  0  0  0  0  0  0  0
  -10.0029    1.8860  -23.4520 C   0  0  0  0  0  0  0  0  0  0  0  0
  -10.3367    3.2974  -23.8077 N   0  0  0  0  0  4  0  0  0  0  0  0
   -9.5794    3.8668  -24.9782 C   0  0  0  0  0  0  0  0  0  0  0  0
   -9.9302    5.3371  -25.1251 C   0  0  0  0  0  0  0  0  0  0  0  0
  -11.3196    5.5243  -25.3094 O   0  0  0  0  0  0  0  0  0  0  0  0
  -12.0721    5.0027  -24.2313 C   0  0  0  0  0  0  0  0  0  0  0  0
  -11.8217    3.5193  -24.0026 C   0  0  0  0  0  0  0  0  0  0  0  0
  -12.3371    3.1660  -23.1045 H   0  0  0  0  0  0  0  0  0  0  0  0
  -12.1699    2.9181  -24.8460 H   0  0  0  0  0  0  0  0  0  0  0  0
  -11.8192    5.5398  -23.3025 H   0  0  0  0  0  0  0  0  0  0  0  0
  -13.1215    5.1914  -24.4683 H   0  0  0  0  0  0  0  0  0  0  0  0
   -9.4342    5.7713  -25.9959 H   0  0  0  0  0  0  0  0  0  0  0  0
   -9.5868    5.8743  -24.2266 H   0  0  0  0  0  0  0  0  0  0  0  0
   -8.5079    3.7265  -24.8215 H   0  0  0  0  0  0  0  0  0  0  0  0
   -9.8758    3.3343  -25.8840 H   0  0  0  0  0  0  0  0  0  0  0  0
  -10.0670    3.8525  -22.9669 H   0  0  0  0  0  0  0  0  0  0  0  0
   -9.1051    1.8870  -22.8320 H   0  0  0  0  0  0  0  0  0  0  0  0
  -10.8163    1.5238  -22.8196 H   0  0  0  0  0  0  0  0  0  0  0  0
   -8.7972    0.8763  -24.9745 H   0  0  0  0  0  0  0  0  0  0  0  0
  -10.4278    1.3320  -25.5024 H   0  0  0  0  0  0  0  0  0  0  0  0
   -9.7576   -2.3196  -24.8454 H   0  0  0  0  0  0  0  0  0  0  0  0
   -8.4541   -1.2149  -24.3222 H   0  0  0  0  0  0  0  0  0  0  0  0
   -9.1197   -1.0602  -21.6710 C   0  0  0  0  0  0  0  0  0  0  0  0
   -9.6882   -0.0871  -21.2229 O   0  0  0  0  0  0  0  0  0  0  0  0
   -7.8528   -1.4471  -21.3156 N   0  0  0  0  0  0  0  0  0  0  0  0
   -7.1362   -0.8472  -20.2606 C   0  0  0  0  0  0  0  0  0  0  0  0
   -7.5006   -1.0464  -18.9546 C   0  0  0  0  0  0  0  0  0  0  0  0
   -6.7746   -0.6093  -17.8944 N   0  0  0  0  0  0  0  0  0  0  0  0
   -5.6701    0.0544  -18.1369 C   0  0  0  0  0  0  0  0  0  0  0  0
   -5.1986    0.3514  -19.4490 C   0  0  0  0  0  0  0  0  0  0  0  0
   -4.0194    1.1034  -19.6873 C   0  0  0  0  0  0  0  0  0  0  0  0
   -3.5768    1.3147  -20.9638 C   0  0  0  0  0  0  0  0  0  0  0  0
   -4.2861    0.7846  -22.0635 C   0  0  0  0  0  0  0  0  0  0  0  0
   -5.4450    0.0780  -21.8624 C   0  0  0  0  0  0  0  0  0  0  0  0
   -5.9324   -0.1401  -20.5482 C   0  0  0  0  0  0  0  0  0  0  0  0
   -6.0067   -0.3165  -22.7030 H   0  0  0  0  0  0  0  0  0  0  0  0
   -3.9163    0.9404  -23.0704 H   0  0  0  0  0  0  0  0  0  0  0  0
   -2.6734    1.8916  -21.1421 H   0  0  0  0  0  0  0  0  0  0  0  0
   -3.4837    1.5076  -18.8334 H   0  0  0  0  0  0  0  0  0  0  0  0
   -5.0766    0.3800  -17.2772 H   0  0  0  0  0  0  0  0  0  0  0  0
   -8.4022   -1.6056  -18.7089 H   0  0  0  0  0  0  0  0  0  0  0  0
   -7.4280   -2.6864  -21.9220 C   0  0  0  0  0  0  0  0  0  0  0  0
   -8.7484   -3.3007  -22.3995 C   0  0  2  0  0  0  0  0  0  0  0  0
   -8.5010   -4.3480  -23.4742 C   0  0  0  0  0  0  0  0  0  0  0  0
   -9.6727   -5.0094  -24.0170 N   0  0  0  0  0  0  0  0  0  0  0  0
   -9.5406   -5.8200  -25.1047 C   0  0  0  0  0  0  0  0  0  0  0  0
  -10.5983   -6.5716  -25.4589 N   0  0  0  0  0  0  0  0  0  0  0  0
  -10.4537   -7.2872  -26.5677 C   0  0  0  0  0  0  0  0  0  0  0  0
   -9.3008   -7.2719  -27.3502 C   0  0  0  0  0  0  0  0  0  0  0  0
   -8.2605   -6.4937  -26.8632 C   0  0  0  0  0  0  0  0  0  0  0  0
   -8.3557   -5.7819  -25.7451 N   0  0  0  0  0  0  0  0  0  0  0  0
   -7.3065   -6.4185  -27.3895 H   0  0  0  0  0  0  0  0  0  0  0  0
   -9.2239   -7.8347  -28.2731 H   0  0  0  0  0  0  0  0  0  0  0  0
  -11.3101   -7.9013  -26.8456 H   0  0  0  0  0  0  0  0  0  0  0  0
  -10.5545   -5.0465  -23.5226 H   0  0  0  0  0  0  0  0  0  0  0  0
   -7.8037   -5.1040  -23.0902 H   0  0  0  0  0  0  0  0  0  0  0  0
   -8.0022   -3.8646  -24.3169 H   0  0  0  0  0  0  0  0  0  0  0  0
   -9.2052   -3.7619  -21.5228 H   0  0  0  0  0  0  0  0  0  0  0  0
   -6.7371   -2.5262  -22.7628 H   0  0  0  0  0  0  0  0  0  0  0  0
   -6.8986   -3.2927  -21.1846 H   0  0  0  0  0  0  0  0  0  0  0  0
  -10.9944   -4.2007  -21.4625 H   0  0  0  0  0  0  0  0  0  0  0  0
  -14.5161   -1.9328  -20.6932 H   0  0  0  0  0  0  0  0  0  0  0  0
  -13.8951   -0.3236  -22.4851 H   0  0  0  0  0  0  0  0  0  0  0  0
  1  2  2  0
  2  3  1  0
  3  4  2  0
  4  5  1  0
  5  6  2  0
  6  7  1  0
  6  8  1  0
  8  9  2  0
  9 10  1  0
 10 11  1  6
 11 12  1  0
 12 13  1  0
 13 14  1  0
 14 15  1  0
 15 16  1  0
 16 17  1  0
 17 18  1  0
 18 19  1  0
 19 20  1  0
 20 21  1  0
 20 22  1  0
 19 23  1  0
 19 24  1  0
 17 25  1  0
 17 26  1  0
 16 27  1  0
 16 28  1  0
 15 29  1  0
 14 30  1  0
 14 31  1  0
 13 32  1  0
 13 33  1  0
 11 34  1  0
 11 35  1  0
 10 36  1  0
 36 37  2  0
 36 38  1  0
 38 39  1  0
 39 40  2  0
 40 41  1  0
 41 42  2  0
 42 43  1  0
 43 44  2  0
 44 45  1  0
 45 46  2  0
 46 47  1  0
 47 48  2  0
 47 49  1  0
 46 50  1  0
 45 51  1  0
 44 52  1  0
 42 53  1  0
 40 54  1  0
 38 55  1  0
 55 56  1  0
 56 57  1  0
 57 58  1  0
 58 59  1  0
 59 60  2  0
 60 61  1  0
 61 62  2  0
 62 63  1  0
 63 64  2  0
 63 65  1  0
 62 66  1  0
 61 67  1  0
 58 68  1  0
 57 69  1  0
 57 70  1  0
 56 71  1  1
 55 72  1  0
 55 73  1  0
  8 74  1  0
  5 75  1  0
  4 76  1  0
 12  2  1  0
 20 15  1  0
 48 39  1  0
 64 59  1  0
  9  3  1  0
 56 10  1  0
 48 43  1  0
M  CHG  1  15   1
M  END
>  <cnnaffinities>  (13) 
[6.80118, 6.78495, 6.78366]

>  <score>  (13) 
6.80118

>  <index>  (13) 
12

>  <Smiles>  (13) 
O=C1c2c(c(c(Cl)c(c2[C@@]2(C(N1C(C([N+]1(C(C(OC(C1([H])[H])([H])[H])([H])[H])([H])[H])[H])([H])[H])([H])[H])([H])[H])C(=O)N(c1c(nc(c3c(c(c(c(c13)[H])[H])[H])[H])[H])[H])C([C@@]2(C(N(c1nc(c(c(n1)[H])[H])[H])[H])([H])[H])[H])([H])[H])[H])[H])[H]

>  <h>  (13) 
<NA>

>  <Training>  (13) 
True

>  <Success>  (13) 
True

>  <enamine_searched>  (13) 
False

>  <enamine_id>  (13) 
nan

$$$$

     RDKit          3D

 69 74  0  0  0  0  0  0  0  0999 V2000
   -7.3481    3.3816  -21.9235 C   0  0  0  0  0  0  0  0  0  0  0  0
   -8.2728    2.8761  -22.9226 N   0  0  0  0  0  0  0  0  0  0  0  0
   -7.7576    2.1711  -23.9668 C   0  0  0  0  0  0  0  0  0  0  0  0
   -6.5555    1.9994  -24.0974 O   0  0  0  0  0  0  0  0  0  0  0  0
   -8.7649    1.5807  -24.9596 C   0  0  0  0  0  0  0  0  0  0  0  0
   -9.4234    0.4222  -24.3791 N   0  0  0  0  0  0  0  0  0  0  0  0
   -8.6460   -0.7967  -24.1992 C   0  0  0  0  0  0  0  0  0  0  0  0
   -9.0230   -1.5202  -22.8807 C   0  0  2  0  0  0  0  0  0  0  0  0
   -8.5097   -0.7383  -21.6567 C   0  0  0  0  0  0  0  0  0  0  0  0
   -8.9951    0.2517  -21.1518 O   0  0  0  0  0  0  0  0  0  0  0  0
   -7.3749   -1.3686  -21.1994 N   0  0  0  0  0  0  0  0  0  0  0  0
   -6.6040   -0.7981  -20.1654 C   0  0  0  0  0  0  0  0  0  0  0  0
   -6.9374   -1.0208  -18.8552 C   0  0  0  0  0  0  0  0  0  0  0  0
   -6.2417   -0.5333  -17.7999 N   0  0  0  0  0  0  0  0  0  0  0  0
   -5.1911    0.2076  -18.0666 C   0  0  0  0  0  0  0  0  0  0  0  0
   -4.7446    0.5242  -19.3818 C   0  0  0  0  0  0  0  0  0  0  0  0
   -3.6161    1.3510  -19.6251 C   0  0  0  0  0  0  0  0  0  0  0  0
   -3.2355    1.6504  -20.9044 C   0  0  0  0  0  0  0  0  0  0  0  0
   -3.9684    1.1499  -22.0047 C   0  0  0  0  0  0  0  0  0  0  0  0
   -5.0663    0.3506  -21.7979 C   0  0  0  0  0  0  0  0  0  0  0  0
   -5.4743    0.0123  -20.4777 C   0  0  0  0  0  0  0  0  0  0  0  0
   -5.6466    0.0042  -22.6486 H   0  0  0  0  0  0  0  0  0  0  0  0
   -3.6752    1.4100  -23.0164 H   0  0  0  0  0  0  0  0  0  0  0  0
   -2.3718    2.2844  -21.0824 H   0  0  0  0  0  0  0  0  0  0  0  0
   -3.0803    1.7503  -18.7686 H   0  0  0  0  0  0  0  0  0  0  0  0
   -4.6333    0.6029  -17.2175 H   0  0  0  0  0  0  0  0  0  0  0  0
   -7.8079   -1.6292  -18.6209 H   0  0  0  0  0  0  0  0  0  0  0  0
   -6.9913   -2.5481  -21.9461 C   0  0  0  0  0  0  0  0  0  0  0  0
   -8.2814   -2.8667  -22.7077 C   0  0  2  0  0  0  0  0  0  0  0  0
   -8.1239   -3.6952  -23.9848 C   0  0  0  0  0  0  0  0  0  0  0  0
   -7.6792   -5.0540  -23.7369 N   0  0  0  0  0  0  0  0  0  0  0  0
   -6.3713   -5.3613  -23.4883 C   0  0  0  0  0  0  0  0  0  0  0  0
   -5.3107   -4.6759  -24.1093 C   0  0  0  0  0  0  0  0  0  0  0  0
   -4.0718   -5.2407  -23.9517 C   0  0  0  0  0  0  0  0  0  0  0  0
   -3.8146   -6.2835  -23.1580 N   0  0  0  0  0  0  0  0  0  0  0  0
   -4.8689   -6.7634  -22.4970 C   0  0  0  0  0  0  0  0  0  0  0  0
   -4.6320   -7.8552  -21.4925 C   0  0  0  0  0  0  0  0  0  0  0  0
   -3.6159   -8.2511  -21.5924 H   0  0  0  0  0  0  0  0  0  0  0  0
   -5.3861   -8.6379  -21.6298 H   0  0  0  0  0  0  0  0  0  0  0  0
   -4.7643   -7.4637  -20.4774 H   0  0  0  0  0  0  0  0  0  0  0  0
   -6.1382   -6.3701  -22.6434 N   0  0  0  0  0  0  0  0  0  0  0  0
   -3.2279   -4.8341  -24.5025 H   0  0  0  0  0  0  0  0  0  0  0  0
   -5.4368   -3.7813  -24.7119 H   0  0  0  0  0  0  0  0  0  0  0  0
   -8.3197   -5.6496  -23.2263 H   0  0  0  0  0  0  0  0  0  0  0  0
   -7.4125   -3.2188  -24.6663 H   0  0  0  0  0  0  0  0  0  0  0  0
   -9.0869   -3.7363  -24.5103 H   0  0  0  0  0  0  0  0  0  0  0  0
   -8.8715   -3.4756  -22.0176 H   0  0  0  0  0  0  0  0  0  0  0  0
   -6.1399   -2.3573  -22.6186 H   0  0  0  0  0  0  0  0  0  0  0  0
   -6.6998   -3.3594  -21.2719 H   0  0  0  0  0  0  0  0  0  0  0  0
  -10.5218   -1.6295  -22.7966 C   0  0  0  0  0  0  0  0  0  0  0  0
  -11.0960   -2.5299  -21.8951 C   0  0  0  0  0  0  0  0  0  0  0  0
  -12.4618   -2.5819  -21.7313 C   0  0  0  0  0  0  0  0  0  0  0  0
  -13.0523   -3.6660  -20.5013 Cl  0  0  0  0  0  0  0  0  0  0  0  0
  -13.3121   -1.7607  -22.4730 C   0  0  0  0  0  0  0  0  0  0  0  0
  -12.7443   -0.8404  -23.3370 C   0  0  0  0  0  0  0  0  0  0  0  0
  -11.3587   -0.7338  -23.4683 C   0  0  0  0  0  0  0  0  0  0  0  0
  -10.7917    0.4096  -24.2698 C   0  0  0  0  0  0  0  0  0  0  0  0
  -11.4994    1.2757  -24.7597 O   0  0  0  0  0  0  0  0  0  0  0  0
  -13.3614   -0.1556  -23.9057 H   0  0  0  0  0  0  0  0  0  0  0  0
  -14.3875   -1.8208  -22.3397 H   0  0  0  0  0  0  0  0  0  0  0  0
  -10.5080   -3.1895  -21.2681 H   0  0  0  0  0  0  0  0  0  0  0  0
   -7.5821   -0.5378  -24.1937 H   0  0  0  0  0  0  0  0  0  0  0  0
   -8.8199   -1.4663  -25.0545 H   0  0  0  0  0  0  0  0  0  0  0  0
   -8.2228    1.3031  -25.8715 H   0  0  0  0  0  0  0  0  0  0  0  0
   -9.5428    2.2953  -25.2447 H   0  0  0  0  0  0  0  0  0  0  0  0
   -9.2172    2.6772  -22.6225 H   0  0  0  0  0  0  0  0  0  0  0  0
   -6.6297    4.0606  -22.3884 H   0  0  0  0  0  0  0  0  0  0  0  0
   -7.9006    3.9555  -21.1790 H   0  0  0  0  0  0  0  0  0  0  0  0
   -6.7948    2.5552  -21.4544 H   0  0  0  0  0  0  0  0  0  0  0  0
  1  2  1  0
  2  3  1  0
  3  4  2  0
  3  5  1  0
  5  6  1  0
  6  7  1  0
  8  7  1  6
  8  9  1  0
  9 10  2  0
  9 11  1  0
 11 12  1  0
 12 13  2  0
 13 14  1  0
 14 15  2  0
 15 16  1  0
 16 17  2  0
 17 18  1  0
 18 19  2  0
 19 20  1  0
 20 21  2  0
 20 22  1  0
 19 23  1  0
 18 24  1  0
 17 25  1  0
 15 26  1  0
 13 27  1  0
 11 28  1  0
 28 29  1  0
 29 30  1  0
 30 31  1  0
 31 32  1  0
 32 33  2  0
 33 34  1  0
 34 35  2  0
 35 36  1  0
 36 37  1  0
 37 38  1  0
 37 39  1  0
 37 40  1  0
 36 41  2  0
 34 42  1  0
 33 43  1  0
 31 44  1  0
 30 45  1  0
 30 46  1  0
 29 47  1  1
 28 48  1  0
 28 49  1  0
  8 50  1  0
 50 51  2  0
 51 52  1  0
 52 53  1  0
 52 54  2  0
 54 55  1  0
 55 56  2  0
 56 57  1  0
 57 58  2  0
 55 59  1  0
 54 60  1  0
 51 61  1  0
  7 62  1  0
  7 63  1  0
  5 64  1  0
  5 65  1  0
  2 66  1  0
  1 67  1  0
  1 68  1  0
  1 69  1  0
 57  6  1  0
 29  8  1  0
 41 32  1  0
 56 50  1  0
 21 12  1  0
 21 16  1  0
M  END
>  <cnnaffinities>  (14) 
[6.42405]

>  <score>  (14) 
6.42405

>  <index>  (14) 
13

>  <Smiles>  (14) 
C(N(C(=O)C(N1C([C@@]2(C(=O)N(c3c(nc(c4c(c(c(c(c34)[H])[H])[H])[H])[H])[H])C([C@@]2(C(N(c2c(c(nc(C([H])([H])[H])n2)[H])[H])[H])([H])[H])[H])([H])[H])c2c(c(Cl)c(c(c2C1=O)[H])[H])[H])([H])[H])([H])[H])[H])([H])([H])[H]

>  <h>  (14) 
<NA>

>  <Training>  (14) 
True

>  <Success>  (14) 
True

>  <enamine_searched>  (14) 
False

>  <enamine_id>  (14) 
nan

$$$$

     RDKit          3D

 73 78  0  0  0  0  0  0  0  0999 V2000
   -6.8160   -2.9277  -24.1017 C   0  0  0  0  0  0  0  0  0  0  0  0
   -7.9152   -2.7224  -23.0481 C   0  0  1  0  0  0  0  0  0  0  0  0
   -7.3059   -2.6537  -21.6231 C   0  0  0  0  0  0  0  0  0  0  0  0
   -7.5409   -1.2948  -21.1835 N   0  0  0  0  0  0  0  0  0  0  0  0
   -6.7220   -0.7350  -20.1577 C   0  0  0  0  0  0  0  0  0  0  0  0
   -7.0216   -0.9988  -18.8443 C   0  0  0  0  0  0  0  0  0  0  0  0
   -6.3110   -0.5439  -17.7830 N   0  0  0  0  0  0  0  0  0  0  0  0
   -5.2321    0.1596  -18.0358 C   0  0  0  0  0  0  0  0  0  0  0  0
   -4.7631    0.4497  -19.3462 C   0  0  0  0  0  0  0  0  0  0  0  0
   -3.5527    1.1619  -19.5652 C   0  0  0  0  0  0  0  0  0  0  0  0
   -3.1042    1.4071  -20.8344 C   0  0  0  0  0  0  0  0  0  0  0  0
   -3.8544    0.9620  -21.9435 C   0  0  0  0  0  0  0  0  0  0  0  0
   -5.0260    0.2651  -21.7599 C   0  0  0  0  0  0  0  0  0  0  0  0
   -5.5224   -0.0058  -20.4513 C   0  0  0  0  0  0  0  0  0  0  0  0
   -5.5993   -0.0613  -22.6219 H   0  0  0  0  0  0  0  0  0  0  0  0
   -3.5109    1.1950  -22.9475 H   0  0  0  0  0  0  0  0  0  0  0  0
   -2.2046    1.9947  -20.9942 H   0  0  0  0  0  0  0  0  0  0  0  0
   -2.9988    1.5132  -18.6990 H   0  0  0  0  0  0  0  0  0  0  0  0
   -4.6590    0.5320  -17.1835 H   0  0  0  0  0  0  0  0  0  0  0  0
   -7.8934   -1.6054  -18.6060 H   0  0  0  0  0  0  0  0  0  0  0  0
   -8.2155   -0.5371  -22.1014 C   0  0  0  0  0  0  0  0  0  0  0  0
   -8.2687    0.6776  -22.0654 O   0  0  0  0  0  0  0  0  0  0  0  0
   -8.7891   -1.4187  -23.2192 C   0  0  1  0  0  0  0  0  0  0  0  0
   -8.6035   -0.7108  -24.5954 C   0  0  0  0  0  0  0  0  0  0  0  0
   -9.6342    0.2812  -24.8954 N   0  0  0  0  0  0  0  0  0  0  0  0
   -9.3584    1.5852  -25.4902 C   0  0  0  0  0  0  0  0  0  0  0  0
   -9.3567    2.7019  -24.4454 C   0  0  0  0  0  0  0  0  0  0  0  0
   -8.0569    2.7622  -23.7217 N   0  0  0  0  0  4  0  0  0  0  0  0
   -8.0826    3.5026  -22.4179 C   0  0  0  0  0  0  0  0  0  0  0  0
   -6.6816    3.5838  -21.8046 C   0  0  0  0  0  0  0  0  0  0  0  0
   -5.7075    4.1080  -22.7707 N   0  0  0  0  0  0  0  0  0  0  0  0
   -4.3511    4.8850  -22.2311 S   0  0  0  0  0  0  0  0  0  0  0  0
   -3.4502    4.9801  -23.3664 O   0  0  0  0  0  0  0  0  0  0  0  0
   -3.9411    4.2461  -20.9977 O   0  0  0  0  0  0  0  0  0  0  0  0
   -4.8989    6.5392  -21.8405 C   0  0  0  0  0  0  0  0  0  0  0  0
   -4.0880    7.0322  -21.2982 H   0  0  0  0  0  0  0  0  0  0  0  0
   -5.7891    6.4920  -21.2071 H   0  0  0  0  0  0  0  0  0  0  0  0
   -5.0991    7.0739  -22.7727 H   0  0  0  0  0  0  0  0  0  0  0  0
   -6.2455    4.4601  -24.0755 C   0  0  0  0  0  0  0  0  0  0  0  0
   -6.9667    3.2478  -24.6403 C   0  0  0  0  0  0  0  0  0  0  0  0
   -6.2625    2.4264  -24.7986 H   0  0  0  0  0  0  0  0  0  0  0  0
   -7.4017    3.5189  -25.6064 H   0  0  0  0  0  0  0  0  0  0  0  0
   -6.9333    5.3125  -23.9971 H   0  0  0  0  0  0  0  0  0  0  0  0
   -5.4291    4.7587  -24.7310 H   0  0  0  0  0  0  0  0  0  0  0  0
   -6.7008    4.2223  -20.9170 H   0  0  0  0  0  0  0  0  0  0  0  0
   -6.3447    2.5882  -21.4785 H   0  0  0  0  0  0  0  0  0  0  0  0
   -8.4958    4.5105  -22.5632 H   0  0  0  0  0  0  0  0  0  0  0  0
   -8.7390    2.9477  -21.7480 H   0  0  0  0  0  0  0  0  0  0  0  0
   -7.8830    1.7896  -23.4177 H   0  0  0  0  0  0  0  0  0  0  0  0
  -10.1493    2.5062  -23.7227 H   0  0  0  0  0  0  0  0  0  0  0  0
   -9.5734    3.6717  -24.9122 H   0  0  0  0  0  0  0  0  0  0  0  0
  -10.1482    1.7712  -26.2180 H   0  0  0  0  0  0  0  0  0  0  0  0
   -8.4115    1.5506  -26.0360 H   0  0  0  0  0  0  0  0  0  0  0  0
  -10.9494   -0.0850  -24.8469 C   0  0  0  0  0  0  0  0  0  0  0  0
  -11.8289    0.4801  -25.4835 O   0  0  0  0  0  0  0  0  0  0  0  0
  -11.2383   -1.2212  -23.9306 C   0  0  0  0  0  0  0  0  0  0  0  0
  -12.5145   -1.7631  -23.9884 C   0  0  0  0  0  0  0  0  0  0  0  0
  -12.9180   -2.7048  -23.0702 C   0  0  0  0  0  0  0  0  0  0  0  0
  -12.0537   -3.0088  -22.0187 C   0  0  0  0  0  0  0  0  0  0  0  0
  -12.6890   -3.9765  -20.7231 Cl  0  0  0  0  0  0  0  0  0  0  0  0
  -10.7478   -2.5355  -21.9927 C   0  0  0  0  0  0  0  0  0  0  0  0
  -10.2838   -1.7058  -23.0287 C   0  0  0  0  0  0  0  0  0  0  0  0
  -10.0879   -2.8368  -21.1844 H   0  0  0  0  0  0  0  0  0  0  0  0
  -13.8867   -3.1808  -23.1650 H   0  0  0  0  0  0  0  0  0  0  0  0
  -13.1742   -1.4378  -24.7833 H   0  0  0  0  0  0  0  0  0  0  0  0
   -8.6148   -1.4926  -25.3661 H   0  0  0  0  0  0  0  0  0  0  0  0
   -7.6334   -0.2123  -24.6322 H   0  0  0  0  0  0  0  0  0  0  0  0
   -6.2254   -2.8474  -21.6268 H   0  0  0  0  0  0  0  0  0  0  0  0
   -7.7472   -3.3760  -20.9257 H   0  0  0  0  0  0  0  0  0  0  0  0
   -8.5760   -3.5914  -23.1142 H   0  0  0  0  0  0  0  0  0  0  0  0
   -7.2341   -3.0574  -25.1049 H   0  0  0  0  0  0  0  0  0  0  0  0
   -6.2404   -3.8319  -23.8749 H   0  0  0  0  0  0  0  0  0  0  0  0
   -6.1115   -2.0876  -24.1273 H   0  0  0  0  0  0  0  0  0  0  0  0
  1  2  1  0
  2  3  1  0
  3  4  1  0
  4  5  1  0
  5  6  2  0
  6  7  1  0
  7  8  2  0
  8  9  1  0
  9 10  2  0
 10 11  1  0
 11 12  2  0
 12 13  1  0
 13 14  2  0
 13 15  1  0
 12 16  1  0
 11 17  1  0
 10 18  1  0
  8 19  1  0
  6 20  1  0
  4 21  1  0
 21 22  2  0
 21 23  1  0
 23 24  1  6
 24 25  1  0
 25 26  1  0
 26 27  1  0
 27 28  1  0
 28 29  1  0
 29 30  1  0
 30 31  1  0
 31 32  1  0
 32 33  2  0
 32 34  2  0
 32 35  1  0
 35 36  1  0
 35 37  1  0
 35 38  1  0
 31 39  1  0
 39 40  1  0
 40 41  1  0
 40 42  1  0
 39 43  1  0
 39 44  1  0
 30 45  1  0
 30 46  1  0
 29 47  1  0
 29 48  1  0
 28 49  1  0
 27 50  1  0
 27 51  1  0
 26 52  1  0
 26 53  1  0
 25 54  1  0
 54 55  2  0
 54 56  1  0
 56 57  2  0
 57 58  1  0
 58 59  2  0
 59 60  1  0
 59 61  1  0
 61 62  2  0
 61 63  1  0
 58 64  1  0
 57 65  1  0
 24 66  1  0
 24 67  1  0
  3 68  1  0
  3 69  1  0
  2 70  1  1
  1 71  1  0
  1 72  1  0
  1 73  1  0
 23  2  1  0
 40 28  1  0
 62 56  1  0
 14  5  1  0
 62 23  1  0
 14  9  1  0
M  CHG  1  28   1
M  END
>  <cnnaffinities>  (15) 
[6.14325]

>  <score>  (15) 
6.14325

>  <index>  (15) 
14

>  <Smiles>  (15) 
C([C@]1(C(N(c2c(nc(c3c(c(c(c(c23)[H])[H])[H])[H])[H])[H])C(=O)[C@]21C(N(C(C([N+]1(C(C(N(S(=O)(=O)C([H])([H])[H])C(C1([H])[H])([H])[H])([H])[H])([H])[H])[H])([H])[H])([H])[H])C(=O)c1c(c(c(Cl)c(c21)[H])[H])[H])([H])[H])([H])[H])[H])([H])([H])[H]

>  <h>  (15) 
<NA>

>  <Training>  (15) 
True

>  <Success>  (15) 
True

>  <enamine_searched>  (15) 
False

>  <enamine_id>  (15) 
nan

$$$$

     RDKit          3D

 63 68  0  0  0  0  0  0  0  0999 V2000
   -7.4975    3.3603  -21.7773 C   0  0  0  0  0  0  0  0  0  0  0  0
   -8.4241    2.9015  -22.7810 N   0  0  0  0  0  0  0  0  0  0  0  0
   -7.8931    2.1999  -23.8088 C   0  0  0  0  0  0  0  0  0  0  0  0
   -6.6858    2.0819  -23.9469 O   0  0  0  0  0  0  0  0  0  0  0  0
   -8.8637    1.5828  -24.8027 C   0  0  0  0  0  0  0  0  0  0  0  0
   -9.5228    0.4016  -24.2947 N   0  0  0  0  0  0  0  0  0  0  0  0
   -8.7473   -0.8201  -24.1758 C   0  0  0  0  0  0  0  0  0  0  0  0
   -9.0641   -1.5687  -22.8650 C   0  0  2  0  0  0  0  0  0  0  0  0
   -8.5352   -0.7824  -21.6414 C   0  0  0  0  0  0  0  0  0  0  0  0
   -9.0298    0.1997  -21.1219 O   0  0  0  0  0  0  0  0  0  0  0  0
   -7.3826   -1.3895  -21.2046 N   0  0  0  0  0  0  0  0  0  0  0  0
   -6.5979   -0.8157  -20.1743 C   0  0  0  0  0  0  0  0  0  0  0  0
   -6.9144   -1.0446  -18.8583 C   0  0  0  0  0  0  0  0  0  0  0  0
   -6.2176   -0.5466  -17.8077 N   0  0  0  0  0  0  0  0  0  0  0  0
   -5.1775    0.2078  -18.0771 C   0  0  0  0  0  0  0  0  0  0  0  0
   -4.7359    0.5248  -19.3947 C   0  0  0  0  0  0  0  0  0  0  0  0
   -3.6124    1.3621  -19.6390 C   0  0  0  0  0  0  0  0  0  0  0  0
   -3.2304    1.6611  -20.9189 C   0  0  0  0  0  0  0  0  0  0  0  0
   -3.9556    1.1416  -22.0159 C   0  0  0  0  0  0  0  0  0  0  0  0
   -5.0463    0.3309  -21.8057 C   0  0  0  0  0  0  0  0  0  0  0  0
   -5.4656    0.0011  -20.4869 C   0  0  0  0  0  0  0  0  0  0  0  0
   -5.6116   -0.0403  -22.6554 H   0  0  0  0  0  0  0  0  0  0  0  0
   -3.6650    1.3962  -23.0299 H   0  0  0  0  0  0  0  0  0  0  0  0
   -2.3794    2.3144  -21.0958 H   0  0  0  0  0  0  0  0  0  0  0  0
   -3.0836    1.7723  -18.7827 H   0  0  0  0  0  0  0  0  0  0  0  0
   -4.6225    0.6098  -17.2292 H   0  0  0  0  0  0  0  0  0  0  0  0
   -7.7697   -1.6690  -18.6074 H   0  0  0  0  0  0  0  0  0  0  0  0
   -7.0187   -2.5854  -21.9344 C   0  0  0  0  0  0  0  0  0  0  0  0
   -8.2835   -2.9141  -22.7405 C   0  0  2  0  0  0  0  0  0  0  0  0
   -7.9742   -3.6712  -24.0451 C   0  0  0  0  0  0  0  0  0  0  0  0
   -7.4015   -4.9832  -23.8068 N   0  0  0  0  0  0  0  0  0  0  0  0
   -8.0758   -6.1171  -23.5080 C   0  0  0  0  0  0  0  0  0  0  0  0
   -7.1326   -7.0977  -23.2851 C   0  0  0  0  0  0  0  0  0  0  0  0
   -5.8988   -6.4321  -23.4781 C   0  0  0  0  0  0  0  0  0  0  0  0
   -6.0724   -5.1510  -23.7855 N   0  0  0  0  0  0  0  0  0  0  0  0
   -4.8865   -6.8136  -23.4057 H   0  0  0  0  0  0  0  0  0  0  0  0
   -7.3136   -8.1355  -23.0195 H   0  0  0  0  0  0  0  0  0  0  0  0
   -9.1630   -6.1203  -23.4894 H   0  0  0  0  0  0  0  0  0  0  0  0
   -7.2340   -3.1295  -24.6390 H   0  0  0  0  0  0  0  0  0  0  0  0
   -8.8865   -3.8120  -24.6372 H   0  0  0  0  0  0  0  0  0  0  0  0
   -8.9095   -3.5751  -22.1402 H   0  0  0  0  0  0  0  0  0  0  0  0
   -6.1654   -2.4036  -22.6038 H   0  0  0  0  0  0  0  0  0  0  0  0
   -6.7312   -3.3853  -21.2444 H   0  0  0  0  0  0  0  0  0  0  0  0
  -10.5698   -1.6785  -22.7662 C   0  0  0  0  0  0  0  0  0  0  0  0
  -11.1264   -2.6048  -21.8862 C   0  0  0  0  0  0  0  0  0  0  0  0
  -12.4918   -2.6698  -21.7065 C   0  0  0  0  0  0  0  0  0  0  0  0
  -13.0713   -3.8010  -20.5143 Cl  0  0  0  0  0  0  0  0  0  0  0  0
  -13.3557   -1.8325  -22.4169 C   0  0  0  0  0  0  0  0  0  0  0  0
  -12.8113   -0.8777  -23.2550 C   0  0  0  0  0  0  0  0  0  0  0  0
  -11.4289   -0.7707  -23.4002 C   0  0  0  0  0  0  0  0  0  0  0  0
  -10.8859    0.3972  -24.1632 C   0  0  0  0  0  0  0  0  0  0  0  0
  -11.6064    1.2883  -24.5991 O   0  0  0  0  0  0  0  0  0  0  0  0
  -13.4396   -0.1721  -23.7885 H   0  0  0  0  0  0  0  0  0  0  0  0
  -14.4291   -1.9140  -22.2992 H   0  0  0  0  0  0  0  0  0  0  0  0
  -10.4953   -3.2690  -21.3094 H   0  0  0  0  0  0  0  0  0  0  0  0
   -8.9681   -1.4892  -25.0211 H   0  0  0  0  0  0  0  0  0  0  0  0
   -7.6909   -0.5388  -24.1997 H   0  0  0  0  0  0  0  0  0  0  0  0
   -9.6676    2.2729  -25.0590 H   0  0  0  0  0  0  0  0  0  0  0  0
   -8.2597    1.3415  -25.6830 H   0  0  0  0  0  0  0  0  0  0  0  0
   -9.3836    2.7466  -22.5256 H   0  0  0  0  0  0  0  0  0  0  0  0
   -6.8981    2.5225  -21.4078 H   0  0  0  0  0  0  0  0  0  0  0  0
   -8.0428    3.8287  -20.9664 H   0  0  0  0  0  0  0  0  0  0  0  0
   -6.8051    4.0815  -22.2036 H   0  0  0  0  0  0  0  0  0  0  0  0
  1  2  1  0
  2  3  1  0
  3  4  2  0
  3  5  1  0
  5  6  1  0
  6  7  1  0
  8  7  1  6
  8  9  1  0
  9 10  2  0
  9 11  1  0
 11 12  1  0
 12 13  2  0
 13 14  1  0
 14 15  2  0
 15 16  1  0
 16 17  2  0
 17 18  1  0
 18 19  2  0
 19 20  1  0
 20 21  2  0
 20 22  1  0
 19 23  1  0
 18 24  1  0
 17 25  1  0
 15 26  1  0
 13 27  1  0
 11 28  1  0
 28 29  1  0
 29 30  1  0
 30 31  1  0
 31 32  1  0
 32 33  2  0
 33 34  1  0
 34 35  2  0
 34 36  1  0
 33 37  1  0
 32 38  1  0
 30 39  1  0
 30 40  1  0
 29 41  1  1
 28 42  1  0
 28 43  1  0
  8 44  1  0
 44 45  2  0
 45 46  1  0
 46 47  1  0
 46 48  2  0
 48 49  1  0
 49 50  2  0
 50 51  1  0
 51 52  2  0
 49 53  1  0
 48 54  1  0
 45 55  1  0
  7 56  1  0
  7 57  1  0
  5 58  1  0
  5 59  1  0
  2 60  1  0
  1 61  1  0
  1 62  1  0
  1 63  1  0
 51  6  1  0
 29  8  1  0
 35 31  1  0
 50 44  1  0
 21 12  1  0
 21 16  1  0
M  END
>  <cnnaffinities>  (16) 
[6.55362, 6.6641]

>  <score>  (16) 
6.55362

>  <index>  (16) 
15

>  <Smiles>  (16) 
C(N(C(=O)C(N1C([C@@]2(C(=O)N(c3c(nc(c4c(c(c(c(c34)[H])[H])[H])[H])[H])[H])C([C@@]2(C(n2c(c(c(n2)[H])[H])[H])([H])[H])[H])([H])[H])c2c(c(Cl)c(c(c2C1=O)[H])[H])[H])([H])[H])([H])[H])[H])([H])([H])[H]

>  <h>  (16) 
<NA>

>  <Training>  (16) 
True

>  <Success>  (16) 
True

>  <enamine_searched>  (16) 
False

>  <enamine_id>  (16) 
nan

$$$$

     RDKit          3D

 61 66  0  0  0  0  0  0  0  0999 V2000
   -7.3812    3.4055  -21.8154 C   0  0  0  0  0  0  0  0  0  0  0  0
   -8.2288    2.9306  -22.8935 N   0  0  0  0  0  0  0  0  0  0  0  0
   -7.6545    2.2422  -23.9067 C   0  0  0  0  0  0  0  0  0  0  0  0
   -6.4395    2.1325  -24.0154 O   0  0  0  0  0  0  0  0  0  0  0  0
   -8.6089    1.6252  -24.9373 C   0  0  0  0  0  0  0  0  0  0  0  0
   -9.3425    0.4735  -24.4401 N   0  0  0  0  0  0  0  0  0  0  0  0
   -8.6211   -0.7799  -24.2719 C   0  0  0  0  0  0  0  0  0  0  0  0
   -9.0150   -1.4881  -22.9551 C   0  0  2  0  0  0  0  0  0  0  0  0
   -8.4763   -0.7018  -21.7308 C   0  0  0  0  0  0  0  0  0  0  0  0
   -8.9065    0.3378  -21.2762 O   0  0  0  0  0  0  0  0  0  0  0  0
   -7.4001   -1.3829  -21.2059 N   0  0  0  0  0  0  0  0  0  0  0  0
   -6.6021   -0.8100  -20.1767 C   0  0  0  0  0  0  0  0  0  0  0  0
   -6.9079   -1.0408  -18.8593 C   0  0  0  0  0  0  0  0  0  0  0  0
   -6.2078   -0.5453  -17.8092 N   0  0  0  0  0  0  0  0  0  0  0  0
   -5.1686    0.2109  -18.0756 C   0  0  0  0  0  0  0  0  0  0  0  0
   -4.7292    0.5288  -19.3926 C   0  0  0  0  0  0  0  0  0  0  0  0
   -3.6019    1.3621  -19.6378 C   0  0  0  0  0  0  0  0  0  0  0  0
   -3.2157    1.6512  -20.9194 C   0  0  0  0  0  0  0  0  0  0  0  0
   -3.9365    1.1218  -22.0122 C   0  0  0  0  0  0  0  0  0  0  0  0
   -5.0303    0.3157  -21.7999 C   0  0  0  0  0  0  0  0  0  0  0  0
   -5.4624    0.0022  -20.4822 C   0  0  0  0  0  0  0  0  0  0  0  0
   -5.5890   -0.0722  -22.6458 H   0  0  0  0  0  0  0  0  0  0  0  0
   -3.6443    1.3672  -23.0278 H   0  0  0  0  0  0  0  0  0  0  0  0
   -2.3631    2.3016  -21.0993 H   0  0  0  0  0  0  0  0  0  0  0  0
   -3.0735    1.7776  -18.7844 H   0  0  0  0  0  0  0  0  0  0  0  0
   -4.6190    0.6153  -17.2255 H   0  0  0  0  0  0  0  0  0  0  0  0
   -7.7589   -1.6678  -18.6033 H   0  0  0  0  0  0  0  0  0  0  0  0
   -7.0683   -2.6063  -21.9082 C   0  0  0  0  0  0  0  0  0  0  0  0
   -8.3061   -2.8702  -22.7829 C   0  0  2  0  0  0  0  0  0  0  0  0
   -7.9502   -3.6364  -24.0724 C   0  0  0  0  0  0  0  0  0  0  0  0
   -7.4210   -4.9627  -23.7813 N   0  0  0  0  0  0  0  0  0  0  0  0
   -6.1315   -5.2347  -23.6762 N   0  0  0  0  0  0  0  0  0  0  0  0
   -6.1627   -6.5195  -23.3492 C   0  0  0  0  0  0  0  0  0  0  0  0
   -7.4208   -6.9974  -23.2632 N   0  0  0  0  0  0  0  0  0  0  0  0
   -8.2030   -5.9921  -23.5433 N   0  0  0  0  0  0  0  0  0  0  0  0
   -5.2798   -7.1162  -23.1681 H   0  0  0  0  0  0  0  0  0  0  0  0
   -7.1697   -3.1227  -24.6389 H   0  0  0  0  0  0  0  0  0  0  0  0
   -8.8306   -3.7855  -24.7048 H   0  0  0  0  0  0  0  0  0  0  0  0
   -8.9847   -3.5205  -22.2242 H   0  0  0  0  0  0  0  0  0  0  0  0
   -6.1641   -2.4846  -22.5248 H   0  0  0  0  0  0  0  0  0  0  0  0
   -6.8745   -3.4234  -21.2057 H   0  0  0  0  0  0  0  0  0  0  0  0
  -10.5275   -1.5185  -22.8916 C   0  0  0  0  0  0  0  0  0  0  0  0
  -11.1409   -2.3668  -21.9735 C   0  0  0  0  0  0  0  0  0  0  0  0
  -12.5098   -2.3784  -21.8188 C   0  0  0  0  0  0  0  0  0  0  0  0
  -13.1194   -3.3909  -20.5416 Cl  0  0  0  0  0  0  0  0  0  0  0  0
  -13.3335   -1.5681  -22.6021 C   0  0  0  0  0  0  0  0  0  0  0  0
  -12.7255   -0.6700  -23.4629 C   0  0  0  0  0  0  0  0  0  0  0  0
  -11.3358   -0.6050  -23.5793 C   0  0  0  0  0  0  0  0  0  0  0  0
  -10.7150    0.5177  -24.3654 C   0  0  0  0  0  0  0  0  0  0  0  0
  -11.3783    1.4163  -24.8639 O   0  0  0  0  0  0  0  0  0  0  0  0
  -13.3063    0.0396  -24.0386 H   0  0  0  0  0  0  0  0  0  0  0  0
  -14.4147   -1.6161  -22.5233 H   0  0  0  0  0  0  0  0  0  0  0  0
  -10.5638   -3.0077  -21.3218 H   0  0  0  0  0  0  0  0  0  0  0  0
   -8.8268   -1.4578  -25.1166 H   0  0  0  0  0  0  0  0  0  0  0  0
   -7.5526   -0.5452  -24.2525 H   0  0  0  0  0  0  0  0  0  0  0  0
   -7.9749    1.3482  -25.7859 H   0  0  0  0  0  0  0  0  0  0  0  0
   -9.3660    2.3395  -25.2739 H   0  0  0  0  0  0  0  0  0  0  0  0
   -9.2277    2.8784  -22.7540 H   0  0  0  0  0  0  0  0  0  0  0  0
   -6.6720    4.1590  -22.1737 H   0  0  0  0  0  0  0  0  0  0  0  0
   -6.8052    2.5687  -21.3867 H   0  0  0  0  0  0  0  0  0  0  0  0
   -8.0211    3.8736  -21.0683 H   0  0  0  0  0  0  0  0  0  0  0  0
  1  2  1  0
  2  3  1  0
  3  4  2  0
  3  5  1  0
  5  6  1  0
  6  7  1  0
  8  7  1  6
  8  9  1  0
  9 10  2  0
  9 11  1  0
 11 12  1  0
 12 13  2  0
 13 14  1  0
 14 15  2  0
 15 16  1  0
 16 17  2  0
 17 18  1  0
 18 19  2  0
 19 20  1  0
 20 21  2  0
 20 22  1  0
 19 23  1  0
 18 24  1  0
 17 25  1  0
 15 26  1  0
 13 27  1  0
 11 28  1  0
 28 29  1  0
 29 30  1  0
 30 31  1  0
 31 32  1  0
 32 33  2  0
 33 34  1  0
 34 35  2  0
 33 36  1  0
 30 37  1  0
 30 38  1  0
 29 39  1  1
 28 40  1  0
 28 41  1  0
  8 42  1  0
 42 43  2  0
 43 44  1  0
 44 45  1  0
 44 46  2  0
 46 47  1  0
 47 48  2  0
 48 49  1  0
 49 50  2  0
 47 51  1  0
 46 52  1  0
 43 53  1  0
  7 54  1  0
  7 55  1  0
  5 56  1  0
  5 57  1  0
  2 58  1  0
  1 59  1  0
  1 60  1  0
  1 61  1  0
 49  6  1  0
 29  8  1  0
 35 31  1  0
 48 42  1  0
 21 12  1  0
 21 16  1  0
M  END
>  <cnnaffinities>  (17) 
[6.33245, 6.9175, 6.36006]

>  <score>  (17) 
6.33245

>  <index>  (17) 
16

>  <Smiles>  (17) 
C(N(C(=O)C(N1C([C@@]2(C(=O)N(c3c(nc(c4c(c(c(c(c34)[H])[H])[H])[H])[H])[H])C([C@@]2(C(n2nc(nn2)[H])([H])[H])[H])([H])[H])c2c(c(Cl)c(c(c2C1=O)[H])[H])[H])([H])[H])([H])[H])[H])([H])([H])[H]

>  <h>  (17) 
<NA>

>  <Training>  (17) 
True

>  <Success>  (17) 
True

>  <enamine_searched>  (17) 
False

>  <enamine_id>  (17) 
nan

$$$$

     RDKit          3D

 38 41  0  0  0  0  0  0  0  0999 V2000
  -10.8099   -4.6504  -22.9171 C   0  0  0  0  0  0  0  0  0  0  0  0
  -10.5515   -3.3971  -23.7337 C   0  0  2  0  0  0  0  0  0  0  0  0
   -9.3896   -3.6216  -24.7154 C   0  0  0  0  0  0  0  0  0  0  0  0
   -8.0504   -3.7713  -23.9640 C   0  0  0  0  0  0  0  0  0  0  0  0
   -7.9388   -2.7917  -22.8785 C   0  0  0  0  0  0  0  0  0  0  0  0
   -6.7951   -2.4213  -22.0943 C   0  0  0  0  0  0  0  0  0  0  0  0
   -5.6424   -2.7859  -22.1681 O   0  0  0  0  0  1  0  0  0  0  0  0
   -7.3023   -1.4481  -21.1844 N   0  0  0  0  0  0  0  0  0  0  0  0
   -6.5600   -0.8297  -20.1566 C   0  0  0  0  0  0  0  0  0  0  0  0
   -6.8956   -1.0472  -18.8406 C   0  0  0  0  0  0  0  0  0  0  0  0
   -6.2043   -0.5376  -17.7917 N   0  0  0  0  0  0  0  0  0  0  0  0
   -5.1700    0.2127  -18.0761 C   0  0  0  0  0  0  0  0  0  0  0  0
   -4.7283    0.5305  -19.3924 C   0  0  0  0  0  0  0  0  0  0  0  0
   -3.6034    1.3616  -19.6303 C   0  0  0  0  0  0  0  0  0  0  0  0
   -3.2231    1.6658  -20.9036 C   0  0  0  0  0  0  0  0  0  0  0  0
   -3.9544    1.1643  -22.0055 C   0  0  0  0  0  0  0  0  0  0  0  0
   -5.0508    0.3639  -21.8053 C   0  0  0  0  0  0  0  0  0  0  0  0
   -5.4507    0.0096  -20.4839 C   0  0  0  0  0  0  0  0  0  0  0  0
   -5.6173   -0.0039  -22.6571 H   0  0  0  0  0  0  0  0  0  0  0  0
   -3.6481    1.4209  -23.0149 H   0  0  0  0  0  0  0  0  0  0  0  0
   -2.3649    2.3112  -21.0790 H   0  0  0  0  0  0  0  0  0  0  0  0
   -3.0766    1.7558  -18.7651 H   0  0  0  0  0  0  0  0  0  0  0  0
   -4.6165    0.6152  -17.2301 H   0  0  0  0  0  0  0  0  0  0  0  0
   -7.7524   -1.6742  -18.5998 H   0  0  0  0  0  0  0  0  0  0  0  0
   -8.6419   -1.1578  -21.4550 C   0  0  0  0  0  0  0  0  0  0  0  0
   -9.3264   -0.2776  -20.9782 O   0  0  0  0  0  0  0  0  0  0  0  0
   -8.9963   -2.0825  -22.4124 N   0  0  0  0  0  0  0  0  0  0  0  0
  -10.3456   -2.1357  -22.9217 C   0  0  0  0  0  0  0  0  0  0  0  0
  -10.5055   -1.2529  -23.5564 H   0  0  0  0  0  0  0  0  0  0  0  0
  -11.0338   -2.1044  -22.0684 H   0  0  0  0  0  0  0  0  0  0  0  0
   -7.2002   -3.6701  -24.6478 H   0  0  0  0  0  0  0  0  0  0  0  0
   -7.9404   -4.7800  -23.5401 H   0  0  0  0  0  0  0  0  0  0  0  0
   -9.5685   -4.5319  -25.2996 H   0  0  0  0  0  0  0  0  0  0  0  0
   -9.3334   -2.7842  -25.4203 H   0  0  0  0  0  0  0  0  0  0  0  0
  -11.4878   -3.1614  -24.2320 H   0  0  0  0  0  0  0  0  0  0  0  0
  -10.8678   -5.4755  -23.6292 H   0  0  0  0  0  0  0  0  0  0  0  0
  -10.0229   -4.8760  -22.1923 H   0  0  0  0  0  0  0  0  0  0  0  0
  -11.7556   -4.5725  -22.3770 H   0  0  0  0  0  0  0  0  0  0  0  0
  1  2  1  0
  2  3  1  0
  3  4  1  0
  4  5  1  0
  5  6  2  0
  6  7  1  0
  6  8  1  0
  8  9  1  0
  9 10  2  0
 10 11  1  0
 11 12  2  0
 12 13  1  0
 13 14  2  0
 14 15  1  0
 15 16  2  0
 16 17  1  0
 17 18  2  0
 17 19  1  0
 16 20  1  0
 15 21  1  0
 14 22  1  0
 12 23  1  0
 10 24  1  0
  8 25  1  0
 25 26  2  0
 25 27  1  0
 27 28  1  0
 28 29  1  0
 28 30  1  0
  4 31  1  0
  4 32  1  0
  3 33  1  0
  3 34  1  0
  2 35  1  6
  1 36  1  0
  1 37  1  0
  1 38  1  0
 28  2  1  0
 27  5  1  0
 18  9  1  0
 18 13  1  0
M  CHG  1   7  -1
M  END
>  <cnnaffinities>  (18) 
[4.63998, 5.15448, 5.23716]

>  <score>  (18) 
4.63998

>  <index>  (18) 
17

>  <Smiles>  (18) 
C([C@@]1(C(C(c2c([O-])n(c3c(nc(c4c(c(c(c(c34)[H])[H])[H])[H])[H])[H])c(=O)n2C1([H])[H])([H])[H])([H])[H])[H])([H])([H])[H]

>  <h>  (18) 
<NA>

>  <Training>  (18) 
True

>  <Success>  (18) 
True

>  <enamine_searched>  (18) 
False

>  <enamine_id>  (18) 
nan

$$$$

     RDKit          3D

 56 61  0  0  0  0  0  0  0  0999 V2000
  -10.1766   -2.8750  -22.0143 C   0  0  0  0  0  0  0  0  0  0  0  0
   -9.1831   -1.9218  -22.6957 C   0  0  1  0  0  0  0  0  0  0  0  0
   -8.6893   -0.8551  -21.6940 C   0  0  0  0  0  0  0  0  0  0  0  0
   -7.4698   -1.4337  -21.1678 N   0  0  0  0  0  0  0  0  0  0  0  0
   -6.6851   -0.8315  -20.1524 C   0  0  0  0  0  0  0  0  0  0  0  0
   -7.0338   -1.0111  -18.8393 C   0  0  0  0  0  0  0  0  0  0  0  0
   -6.3539   -0.4941  -17.7865 N   0  0  0  0  0  0  0  0  0  0  0  0
   -5.2959    0.2333  -18.0566 C   0  0  0  0  0  0  0  0  0  0  0  0
   -4.8288    0.5068  -19.3746 C   0  0  0  0  0  0  0  0  0  0  0  0
   -3.6932    1.3283  -19.6040 C   0  0  0  0  0  0  0  0  0  0  0  0
   -3.2801    1.5995  -20.8786 C   0  0  0  0  0  0  0  0  0  0  0  0
   -3.9749    1.0522  -21.9814 C   0  0  0  0  0  0  0  0  0  0  0  0
   -5.0707    0.2478  -21.7889 C   0  0  0  0  0  0  0  0  0  0  0  0
   -5.5316   -0.0416  -20.4684 C   0  0  0  0  0  0  0  0  0  0  0  0
   -5.5911   -0.1719  -22.6497 H   0  0  0  0  0  0  0  0  0  0  0  0
   -3.6413    1.2818  -22.9894 H   0  0  0  0  0  0  0  0  0  0  0  0
   -2.4245    2.2469  -21.0523 H   0  0  0  0  0  0  0  0  0  0  0  0
   -3.1815    1.7523  -18.7438 H   0  0  0  0  0  0  0  0  0  0  0  0
   -4.7489    0.6512  -17.2105 H   0  0  0  0  0  0  0  0  0  0  0  0
   -7.9005   -1.6239  -18.5961 H   0  0  0  0  0  0  0  0  0  0  0  0
   -6.9440   -2.4217  -21.9745 C   0  0  0  0  0  0  0  0  0  0  0  0
   -5.9214   -3.0193  -21.7415 O   0  0  0  0  0  0  0  0  0  0  0  0
   -7.8727   -2.6143  -23.1918 C   0  0  1  0  0  0  0  0  0  0  0  0
   -8.0420   -4.1195  -23.5144 C   0  0  0  0  0  0  0  0  0  0  0  0
   -6.7705   -4.7106  -23.8968 N   0  0  0  0  0  0  0  0  0  0  0  0
   -6.3063   -5.9839  -23.4121 C   0  0  0  0  0  0  0  0  0  0  0  0
   -4.9856   -5.9242  -22.7320 C   0  0  0  0  0  0  0  0  0  0  0  0
   -4.0018   -6.8216  -23.0696 C   0  0  0  0  0  0  0  0  0  0  0  0
   -3.7256   -6.6678  -23.1630 C   0  0  0  0  0  0  0  0  0  0  0  0
   -4.6616   -6.1111  -20.5894 N   0  0  0  0  0  0  0  0  0  0  0  0
   -5.0221   -5.2636  -21.4222 N   0  0  0  0  0  0  0  0  0  0  0  0
   -4.7815   -5.6972  -19.6466 H   0  0  0  0  0  0  0  0  0  0  0  0
   -2.6474   -6.2315  -22.9985 H   0  0  0  0  0  0  0  0  0  0  0  0
   -3.6116   -7.7368  -23.7178 H   0  0  0  0  0  0  0  0  0  0  0  0
   -7.0017   -6.3601  -22.6614 H   0  0  0  0  0  0  0  0  0  0  0  0
   -6.1903   -6.7126  -24.2052 H   0  0  0  0  0  0  0  0  0  0  0  0
   -5.9476   -4.1129  -24.8051 C   0  0  0  0  0  0  0  0  0  0  0  0
   -4.9349   -4.6798  -25.2040 O   0  0  0  0  0  0  0  0  0  0  0  0
   -6.3574   -2.7386  -25.2304 C   0  0  0  0  0  0  0  0  0  0  0  0
   -5.8337   -2.2309  -26.4203 C   0  0  0  0  0  0  0  0  0  0  0  0
   -6.1935   -0.9736  -26.8690 C   0  0  0  0  0  0  0  0  0  0  0  0
   -7.0482   -0.2247  -26.0710 C   0  0  0  0  0  0  0  0  0  0  0  0
   -7.3937    1.0062  -26.4891 F   0  0  0  0  0  0  0  0  0  0  0  0
   -7.5669   -0.6905  -24.8764 C   0  0  0  0  0  0  0  0  0  0  0  0
   -7.2595   -1.9889  -24.4528 C   0  0  0  0  0  0  0  0  0  0  0  0
   -8.2284   -0.0341  -24.3219 H   0  0  0  0  0  0  0  0  0  0  0  0
   -5.8383   -0.5651  -27.8096 H   0  0  0  0  0  0  0  0  0  0  0  0
   -5.1532   -2.8541  -26.9911 H   0  0  0  0  0  0  0  0  0  0  0  0
   -8.7585   -4.2086  -24.3421 H   0  0  0  0  0  0  0  0  0  0  0  0
   -8.4373   -4.6638  -22.6556 H   0  0  0  0  0  0  0  0  0  0  0  0
   -9.4079   -0.6747  -20.8919 H   0  0  0  0  0  0  0  0  0  0  0  0
   -8.4942    0.1101  -22.1819 H   0  0  0  0  0  0  0  0  0  0  0  0
   -9.7090   -1.4631  -23.5398 H   0  0  0  0  0  0  0  0  0  0  0  0
  -11.0433   -2.3233  -21.6349 H   0  0  0  0  0  0  0  0  0  0  0  0
   -9.7200   -3.3981  -21.1664 H   0  0  0  0  0  0  0  0  0  0  0  0
  -10.5516   -3.6272  -22.7153 H   0  0  0  0  0  0  0  0  0  0  0  0
  1  2  1  0
  2  3  1  0
  3  4  1  0
  4  5  1  0
  5  6  2  0
  6  7  1  0
  7  8  2  0
  8  9  1  0
  9 10  2  0
 10 11  1  0
 11 12  2  0
 12 13  1  0
 13 14  2  0
 13 15  1  0
 12 16  1  0
 11 17  1  0
 10 18  1  0
  8 19  1  0
  6 20  1  0
  4 21  1  0
 21 22  2  0
 21 23  1  0
 23 24  1  6
 24 25  1  0
 25 26  1  0
 26 27  1  0
 27 28  1  0
 28 29  2  0
 29 30  1  0
 30 31  1  0
 30 32  1  0
 29 33  1  0
 28 34  1  0
 26 35  1  0
 26 36  1  0
 25 37  1  0
 37 38  2  0
 37 39  1  0
 39 40  2  0
 40 41  1  0
 41 42  2  0
 42 43  1  0
 42 44  1  0
 44 45  2  0
 44 46  1  0
 41 47  1  0
 40 48  1  0
 24 49  1  0
 24 50  1  0
  3 51  1  0
  3 52  1  0
  2 53  1  6
  1 54  1  0
  1 55  1  0
  1 56  1  0
 23  2  1  0
 31 27  2  0
 45 39  1  0
 14  5  1  0
 45 23  1  0
 14  9  1  0
M  END
>  <cnnaffinities>  (19) 
[5.97157]

>  <score>  (19) 
5.97157

>  <index>  (19) 
18

>  <Smiles>  (19) 
C([C@]1(C(N(c2c(nc(c3c(c(c(c(c23)[H])[H])[H])[H])[H])[H])C(=O)[C@]21C(N(C(c1c(c(n(n1)[H])[H])[H])([H])[H])C(=O)c1c(c(c(F)c(c21)[H])[H])[H])([H])[H])([H])[H])[H])([H])([H])[H]

>  <h>  (19) 
<NA>

>  <Training>  (19) 
True

>  <Success>  (19) 
True

>  <enamine_searched>  (19) 
False

>  <enamine_id>  (19) 
nan

$$$$

     RDKit          3D

 42 45  0  0  0  0  0  0  0  0999 V2000
   -9.1395   -0.0605  -20.7235 O   0  0  0  0  0  0  0  0  0  0  0  0
   -8.6540   -0.9070  -21.4486 C   0  0  0  0  0  0  0  0  0  0  0  0
   -9.3667   -1.5029  -22.6753 C   0  0  1  0  0  0  0  0  0  0  0  0
  -10.4375   -0.5591  -23.1879 C   0  0  0  0  0  0  0  0  0  0  0  0
  -10.1006    0.7528  -23.5137 C   0  0  0  0  0  0  0  0  0  0  0  0
  -11.0735    1.6251  -23.9689 C   0  0  0  0  0  0  0  0  0  0  0  0
  -12.4015    1.2336  -24.0760 C   0  0  0  0  0  0  0  0  0  0  0  0
  -13.5700    2.4841  -24.3377 Cl  0  0  0  0  0  0  0  0  0  0  0  0
  -12.7264   -0.1061  -23.8588 C   0  0  0  0  0  0  0  0  0  0  0  0
  -14.3302   -0.6952  -24.1097 Cl  0  0  0  0  0  0  0  0  0  0  0  0
  -11.7463   -0.9906  -23.4032 C   0  0  0  0  0  0  0  0  0  0  0  0
  -12.0465   -2.0161  -23.1828 H   0  0  0  0  0  0  0  0  0  0  0  0
  -10.8392    2.6523  -24.2065 H   0  0  0  0  0  0  0  0  0  0  0  0
   -9.0893    1.1202  -23.3392 H   0  0  0  0  0  0  0  0  0  0  0  0
   -8.3347   -1.7865  -23.7750 C   0  0  0  0  0  0  0  0  0  0  0  0
   -7.2421   -2.7562  -23.3379 C   0  0  2  0  0  0  0  0  0  0  0  0
   -7.5416   -4.1054  -23.6626 O   0  0  0  0  0  0  0  0  0  0  0  0
   -8.3932   -4.3248  -23.2607 H   0  0  0  0  0  0  0  0  0  0  0  0
   -6.9342   -2.6378  -21.8350 C   0  0  0  0  0  0  0  0  0  0  0  0
   -7.3734   -1.3771  -21.2540 N   0  0  0  0  0  0  0  0  0  0  0  0
   -6.6067   -0.8079  -20.1927 C   0  0  0  0  0  0  0  0  0  0  0  0
   -6.9103   -1.0503  -18.8775 C   0  0  0  0  0  0  0  0  0  0  0  0
   -6.2057   -0.5571  -17.8266 N   0  0  0  0  0  0  0  0  0  0  0  0
   -5.1694    0.2047  -18.0820 C   0  0  0  0  0  0  0  0  0  0  0  0
   -4.7268    0.5239  -19.3967 C   0  0  0  0  0  0  0  0  0  0  0  0
   -3.5986    1.3534  -19.6383 C   0  0  0  0  0  0  0  0  0  0  0  0
   -3.2123    1.6389  -20.9190 C   0  0  0  0  0  0  0  0  0  0  0  0
   -3.9325    1.1047  -22.0123 C   0  0  0  0  0  0  0  0  0  0  0  0
   -5.0237    0.3011  -21.8007 C   0  0  0  0  0  0  0  0  0  0  0  0
   -5.4548   -0.0046  -20.4849 C   0  0  0  0  0  0  0  0  0  0  0  0
   -5.5900   -0.0959  -22.6359 H   0  0  0  0  0  0  0  0  0  0  0  0
   -3.6290    1.3501  -23.0252 H   0  0  0  0  0  0  0  0  0  0  0  0
   -2.3608    2.2881  -21.1046 H   0  0  0  0  0  0  0  0  0  0  0  0
   -3.0695    1.7708  -18.7851 H   0  0  0  0  0  0  0  0  0  0  0  0
   -4.6238    0.6124  -17.2282 H   0  0  0  0  0  0  0  0  0  0  0  0
   -7.7581   -1.6712  -18.5975 H   0  0  0  0  0  0  0  0  0  0  0  0
   -7.3938   -3.5108  -21.3354 H   0  0  0  0  0  0  0  0  0  0  0  0
   -5.8591   -2.6978  -21.6664 H   0  0  0  0  0  0  0  0  0  0  0  0
   -6.3411   -2.5460  -23.9195 H   0  0  0  0  0  0  0  0  0  0  0  0
   -7.8971   -0.8290  -24.0861 H   0  0  0  0  0  0  0  0  0  0  0  0
   -8.8263   -2.2061  -24.6586 H   0  0  0  0  0  0  0  0  0  0  0  0
   -9.8481   -2.4454  -22.3760 H   0  0  0  0  0  0  0  0  0  0  0  0
  1  2  2  0
  2  3  1  0
  3  4  1  0
  4  5  2  0
  5  6  1  0
  6  7  2  0
  7  8  1  0
  7  9  1  0
  9 10  1  0
  9 11  2  0
 11 12  1  0
  6 13  1  0
  5 14  1  0
  3 15  1  0
 15 16  1  0
 16 17  1  0
 17 18  1  0
 16 19  1  0
 19 20  1  0
 20 21  1  0
 21 22  2  0
 22 23  1  0
 23 24  2  0
 24 25  1  0
 25 26  2  0
 26 27  1  0
 27 28  2  0
 28 29  1  0
 29 30  2  0
 29 31  1  0
 28 32  1  0
 27 33  1  0
 26 34  1  0
 24 35  1  0
 22 36  1  0
 19 37  1  0
 19 38  1  0
 16 39  1  6
 15 40  1  0
 15 41  1  0
  3 42  1  1
 20  2  1  0
 30 21  1  0
 11  4  1  0
 30 25  1  0
M  END
>  <cnnaffinities>  (20) 
[5.70405, 5.72687, 5.44337, 5.71546]

>  <score>  (20) 
5.70405

>  <index>  (20) 
19

>  <Smiles>  (20) 
O=C1[C@@](c2c(c(c(Cl)c(Cl)c2[H])[H])[H])(C([C@](O[H])(C(N1c1c(nc(c2c(c(c(c(c12)[H])[H])[H])[H])[H])[H])([H])[H])[H])([H])[H])[H]

>  <h>  (20) 
<NA>

>  <Training>  (20) 
True

>  <Success>  (20) 
True

>  <enamine_searched>  (20) 
False

>  <enamine_id>  (20) 
nan

$$$$

     RDKit          3D

 66 71  0  0  0  0  0  0  0  0999 V2000
   -7.4441    3.3660  -21.7828 C   0  0  0  0  0  0  0  0  0  0  0  0
   -8.3192    2.9014  -22.8384 N   0  0  0  0  0  0  0  0  0  0  0  0
   -7.7577    2.2146  -23.8548 C   0  0  0  0  0  0  0  0  0  0  0  0
   -6.5410    2.1079  -23.9715 O   0  0  0  0  0  0  0  0  0  0  0  0
   -8.7062    1.5944  -24.8766 C   0  0  0  0  0  0  0  0  0  0  0  0
   -9.4201    0.4389  -24.3710 N   0  0  0  0  0  0  0  0  0  0  0  0
   -8.6800   -0.8008  -24.2158 C   0  0  0  0  0  0  0  0  0  0  0  0
   -9.0500   -1.5206  -22.9023 C   0  0  2  0  0  0  0  0  0  0  0  0
   -8.5148   -0.7382  -21.6765 C   0  0  0  0  0  0  0  0  0  0  0  0
   -8.9799    0.2700  -21.1848 O   0  0  0  0  0  0  0  0  0  0  0  0
   -7.3961   -1.3844  -21.2018 N   0  0  0  0  0  0  0  0  0  0  0  0
   -6.6001   -0.8123  -20.1739 C   0  0  0  0  0  0  0  0  0  0  0  0
   -6.9112   -1.0412  -18.8564 C   0  0  0  0  0  0  0  0  0  0  0  0
   -6.2125   -0.5444  -17.8070 N   0  0  0  0  0  0  0  0  0  0  0  0
   -5.1722    0.2097  -18.0756 C   0  0  0  0  0  0  0  0  0  0  0  0
   -4.7315    0.5264  -19.3932 C   0  0  0  0  0  0  0  0  0  0  0  0
   -3.6058    1.3609  -19.6382 C   0  0  0  0  0  0  0  0  0  0  0  0
   -3.2204    1.6531  -20.9193 C   0  0  0  0  0  0  0  0  0  0  0  0
   -3.9434    1.1276  -22.0138 C   0  0  0  0  0  0  0  0  0  0  0  0
   -5.0367    0.3203  -21.8017 C   0  0  0  0  0  0  0  0  0  0  0  0
   -5.4631    0.0004  -20.4838 C   0  0  0  0  0  0  0  0  0  0  0  0
   -5.5982   -0.0600  -22.6495 H   0  0  0  0  0  0  0  0  0  0  0  0
   -3.6517    1.3772  -23.0284 H   0  0  0  0  0  0  0  0  0  0  0  0
   -2.3684    2.3046  -21.0975 H   0  0  0  0  0  0  0  0  0  0  0  0
   -3.0774    1.7746  -18.7836 H   0  0  0  0  0  0  0  0  0  0  0  0
   -4.6196    0.6131  -17.2266 H   0  0  0  0  0  0  0  0  0  0  0  0
   -7.7647   -1.6665  -18.6041 H   0  0  0  0  0  0  0  0  0  0  0  0
   -7.0503   -2.5890  -21.9311 C   0  0  0  0  0  0  0  0  0  0  0  0
   -8.3122   -2.8897  -22.7577 C   0  0  2  0  0  0  0  0  0  0  0  0
   -8.0140   -3.6751  -24.0512 C   0  0  0  0  0  0  0  0  0  0  0  0
   -7.4736   -5.0630  -23.7801 C   0  0  0  0  0  0  0  0  0  0  0  0
   -8.3493   -6.1148  -23.5012 C   0  0  0  0  0  0  0  0  0  0  0  0
   -7.8726   -7.3900  -23.2104 C   0  0  0  0  0  0  0  0  0  0  0  0
   -6.5017   -7.6344  -23.1920 C   0  0  0  0  0  0  0  0  0  0  0  0
   -5.6162   -6.5958  -23.4691 C   0  0  0  0  0  0  0  0  0  0  0  0
   -6.1003   -5.3213  -23.7573 C   0  0  0  0  0  0  0  0  0  0  0  0
   -5.3989   -4.5135  -23.9654 H   0  0  0  0  0  0  0  0  0  0  0  0
   -4.5432   -6.7802  -23.4587 H   0  0  0  0  0  0  0  0  0  0  0  0
   -6.1236   -8.6298  -22.9632 H   0  0  0  0  0  0  0  0  0  0  0  0
   -8.5768   -8.1912  -22.9936 H   0  0  0  0  0  0  0  0  0  0  0  0
   -9.4226   -5.9259  -23.5077 H   0  0  0  0  0  0  0  0  0  0  0  0
   -8.9356   -3.7531  -24.6461 H   0  0  0  0  0  0  0  0  0  0  0  0
   -7.2895   -3.1134  -24.6549 H   0  0  0  0  0  0  0  0  0  0  0  0
   -8.9619   -3.5260  -22.1523 H   0  0  0  0  0  0  0  0  0  0  0  0
   -6.7962   -3.4051  -21.2450 H   0  0  0  0  0  0  0  0  0  0  0  0
   -6.1780   -2.4261  -22.5827 H   0  0  0  0  0  0  0  0  0  0  0  0
  -10.5596   -1.5874  -22.8302 C   0  0  0  0  0  0  0  0  0  0  0  0
  -11.1502   -2.4762  -21.9346 C   0  0  0  0  0  0  0  0  0  0  0  0
  -12.5185   -2.5115  -21.7755 C   0  0  0  0  0  0  0  0  0  0  0  0
  -13.1208   -3.5757  -20.5352 Cl  0  0  0  0  0  0  0  0  0  0  0  0
  -13.3549   -1.6867  -22.5311 C   0  0  0  0  0  0  0  0  0  0  0  0
  -12.7719   -0.7602  -23.3793 C   0  0  0  0  0  0  0  0  0  0  0  0
  -11.3845   -0.6759  -23.5010 C   0  0  0  0  0  0  0  0  0  0  0  0
  -10.7887    0.4670  -24.2740 C   0  0  0  0  0  0  0  0  0  0  0  0
  -11.4739    1.3693  -24.7452 O   0  0  0  0  0  0  0  0  0  0  0  0
  -13.3758   -0.0547  -23.9382 H   0  0  0  0  0  0  0  0  0  0  0  0
  -14.4326   -1.7623  -22.4386 H   0  0  0  0  0  0  0  0  0  0  0  0
  -10.5438   -3.1335  -21.3259 H   0  0  0  0  0  0  0  0  0  0  0  0
   -8.8951   -1.4768  -25.0590 H   0  0  0  0  0  0  0  0  0  0  0  0
   -7.6140   -0.5518  -24.2162 H   0  0  0  0  0  0  0  0  0  0  0  0
   -9.4784    2.3004  -25.1879 H   0  0  0  0  0  0  0  0  0  0  0  0
   -8.0767    1.3204  -25.7297 H   0  0  0  0  0  0  0  0  0  0  0  0
   -9.3055    2.8002  -22.6565 H   0  0  0  0  0  0  0  0  0  0  0  0
   -6.7430    4.1124  -22.1600 H   0  0  0  0  0  0  0  0  0  0  0  0
   -8.0476    3.8287  -21.0077 H   0  0  0  0  0  0  0  0  0  0  0  0
   -6.8588    2.5244  -21.3883 H   0  0  0  0  0  0  0  0  0  0  0  0
  1  2  1  0
  2  3  1  0
  3  4  2  0
  3  5  1  0
  5  6  1  0
  6  7  1  0
  8  7  1  6
  8  9  1  0
  9 10  2  0
  9 11  1  0
 11 12  1  0
 12 13  2  0
 13 14  1  0
 14 15  2  0
 15 16  1  0
 16 17  2  0
 17 18  1  0
 18 19  2  0
 19 20  1  0
 20 21  2  0
 20 22  1  0
 19 23  1  0
 18 24  1  0
 17 25  1  0
 15 26  1  0
 13 27  1  0
 11 28  1  0
 28 29  1  0
 29 30  1  0
 30 31  1  0
 31 32  2  0
 32 33  1  0
 33 34  2  0
 34 35  1  0
 35 36  2  0
 36 37  1  0
 35 38  1  0
 34 39  1  0
 33 40  1  0
 32 41  1  0
 30 42  1  0
 30 43  1  0
 29 44  1  1
 28 45  1  0
 28 46  1  0
  8 47  1  0
 47 48  2  0
 48 49  1  0
 49 50  1  0
 49 51  2  0
 51 52  1  0
 52 53  2  0
 53 54  1  0
 54 55  2  0
 52 56  1  0
 51 57  1  0
 48 58  1  0
  7 59  1  0
  7 60  1  0
  5 61  1  0
  5 62  1  0
  2 63  1  0
  1 64  1  0
  1 65  1  0
  1 66  1  0
 54  6  1  0
 29  8  1  0
 36 31  1  0
 53 47  1  0
 21 12  1  0
 21 16  1  0
M  END
>  <cnnaffinities>  (21) 
[6.49259, 6.52041, 6.6036]

>  <score>  (21) 
6.49259

>  <index>  (21) 
20

>  <Smiles>  (21) 
C(N(C(=O)C(N1C([C@@]2(C(=O)N(c3c(nc(c4c(c(c(c(c34)[H])[H])[H])[H])[H])[H])C([C@@]2(C(c2c(c(c(c(c2[H])[H])[H])[H])[H])([H])[H])[H])([H])[H])c2c(c(Cl)c(c(c2C1=O)[H])[H])[H])([H])[H])([H])[H])[H])([H])([H])[H]

>  <h>  (21) 
<NA>

>  <Training>  (21) 
True

>  <Success>  (21) 
True

>  <enamine_searched>  (21) 
False

>  <enamine_id>  (21) 
nan

$$$$

     RDKit          3D

 63 68  0  0  0  0  0  0  0  0999 V2000
   -8.3271   -4.1418  -23.4780 C   0  0  0  0  0  0  0  0  0  0  0  0
   -8.5484   -2.9847  -22.5183 C   0  0  1  0  0  0  0  0  0  0  0  0
   -7.4122   -2.8085  -21.4990 C   0  0  0  0  0  0  0  0  0  0  0  0
   -7.4316   -1.3899  -21.2117 N   0  0  0  0  0  0  0  0  0  0  0  0
   -6.6216   -0.8118  -20.2044 C   0  0  0  0  0  0  0  0  0  0  0  0
   -6.9158   -1.0655  -18.8864 C   0  0  0  0  0  0  0  0  0  0  0  0
   -6.2370   -0.5581  -17.8291 N   0  0  0  0  0  0  0  0  0  0  0  0
   -5.2053    0.2068  -18.0959 C   0  0  0  0  0  0  0  0  0  0  0  0
   -4.7633    0.5145  -19.4138 C   0  0  0  0  0  0  0  0  0  0  0  0
   -3.6247    1.3348  -19.6312 C   0  0  0  0  0  0  0  0  0  0  0  0
   -3.1954    1.6056  -20.8997 C   0  0  0  0  0  0  0  0  0  0  0  0
   -3.8796    1.0645  -22.0099 C   0  0  0  0  0  0  0  0  0  0  0  0
   -4.9874    0.2729  -21.8267 C   0  0  0  0  0  0  0  0  0  0  0  0
   -5.4731   -0.0110  -20.5153 C   0  0  0  0  0  0  0  0  0  0  0  0
   -5.5018   -0.1244  -22.6953 H   0  0  0  0  0  0  0  0  0  0  0  0
   -3.5304    1.2849  -23.0148 H   0  0  0  0  0  0  0  0  0  0  0  0
   -2.3302    2.2437  -21.0611 H   0  0  0  0  0  0  0  0  0  0  0  0
   -3.1187    1.7479  -18.7631 H   0  0  0  0  0  0  0  0  0  0  0  0
   -4.6450    0.6144  -17.2528 H   0  0  0  0  0  0  0  0  0  0  0  0
   -7.7686   -1.6969  -18.6414 H   0  0  0  0  0  0  0  0  0  0  0  0
   -8.1451   -0.6419  -22.1219 C   0  0  0  0  0  0  0  0  0  0  0  0
   -8.2278    0.5690  -22.0790 O   0  0  0  0  0  0  0  0  0  0  0  0
   -8.7549   -1.5806  -23.1871 C   0  0  1  0  0  0  0  0  0  0  0  0
   -7.9957   -1.3249  -24.5048 C   0  0  0  0  0  0  0  0  0  0  0  0
   -8.6442   -1.8784  -25.6867 N   0  0  0  0  0  0  0  0  0  0  0  0
   -7.8371   -2.2336  -26.8386 C   0  0  0  0  0  0  0  0  0  0  0  0
   -7.7917   -3.7525  -27.0245 C   0  0  0  0  0  0  0  0  0  0  0  0
   -6.9529   -4.4483  -26.4640 O   0  0  0  0  0  0  0  0  0  0  0  0
   -8.7422   -4.2484  -27.8721 N   0  0  0  0  0  0  0  0  0  0  0  0
   -8.9060   -5.6887  -28.0242 C   0  0  0  0  0  0  0  0  0  0  0  0
   -9.5042   -6.3524  -26.7967 C   0  0  0  0  0  0  0  0  0  0  0  0
   -9.5394   -7.8444  -26.6414 C   0  0  0  0  0  0  0  0  0  0  0  0
   -8.6354   -7.0144  -25.7666 C   0  0  0  0  0  0  0  0  0  0  0  0
   -8.8862   -6.8778  -24.7127 H   0  0  0  0  0  0  0  0  0  0  0  0
   -7.5676   -7.0539  -25.9887 H   0  0  0  0  0  0  0  0  0  0  0  0
   -9.0789   -8.4704  -27.4069 H   0  0  0  0  0  0  0  0  0  0  0  0
  -10.4390   -8.2679  -26.1925 H   0  0  0  0  0  0  0  0  0  0  0  0
  -10.3937   -5.8659  -26.4082 H   0  0  0  0  0  0  0  0  0  0  0  0
   -9.5399   -5.8666  -28.9028 H   0  0  0  0  0  0  0  0  0  0  0  0
   -7.9254   -6.1239  -28.2446 H   0  0  0  0  0  0  0  0  0  0  0  0
   -9.5327   -3.6553  -28.0866 H   0  0  0  0  0  0  0  0  0  0  0  0
   -6.8254   -1.8565  -26.6820 H   0  0  0  0  0  0  0  0  0  0  0  0
   -8.2799   -1.7584  -27.7195 H   0  0  0  0  0  0  0  0  0  0  0  0
   -9.9826   -1.7932  -25.9029 C   0  0  0  0  0  0  0  0  0  0  0  0
  -10.4886   -2.0634  -26.9951 O   0  0  0  0  0  0  0  0  0  0  0  0
  -10.7875   -1.3846  -24.7341 C   0  0  0  0  0  0  0  0  0  0  0  0
  -12.1446   -1.1674  -24.9504 C   0  0  0  0  0  0  0  0  0  0  0  0
  -12.9723   -0.8534  -23.8968 C   0  0  0  0  0  0  0  0  0  0  0  0
  -12.3870   -0.7517  -22.6408 C   0  0  0  0  0  0  0  0  0  0  0  0
  -13.1954   -0.4354  -21.6290 F   0  0  0  0  0  0  0  0  0  0  0  0
  -11.0449   -0.9702  -22.3934 C   0  0  0  0  0  0  0  0  0  0  0  0
  -10.2121   -1.2838  -23.4619 C   0  0  0  0  0  0  0  0  0  0  0  0
  -10.6298   -0.9183  -21.3928 H   0  0  0  0  0  0  0  0  0  0  0  0
  -14.0437   -0.7037  -23.9969 H   0  0  0  0  0  0  0  0  0  0  0  0
  -12.5183   -1.2905  -25.9602 H   0  0  0  0  0  0  0  0  0  0  0  0
   -7.8916   -0.2360  -24.5999 H   0  0  0  0  0  0  0  0  0  0  0  0
   -6.9946   -1.7572  -24.4522 H   0  0  0  0  0  0  0  0  0  0  0  0
   -7.5777   -3.3821  -20.5808 H   0  0  0  0  0  0  0  0  0  0  0  0
   -6.4329   -3.1088  -21.9033 H   0  0  0  0  0  0  0  0  0  0  0  0
   -9.4683   -3.1716  -21.9426 H   0  0  0  0  0  0  0  0  0  0  0  0
   -9.1458   -4.1992  -24.2022 H   0  0  0  0  0  0  0  0  0  0  0  0
   -8.2830   -5.0962  -22.9414 H   0  0  0  0  0  0  0  0  0  0  0  0
   -7.3946   -4.0261  -24.0391 H   0  0  0  0  0  0  0  0  0  0  0  0
  1  2  1  0
  2  3  1  0
  3  4  1  0
  4  5  1  0
  5  6  2  0
  6  7  1  0
  7  8  2  0
  8  9  1  0
  9 10  2  0
 10 11  1  0
 11 12  2  0
 12 13  1  0
 13 14  2  0
 13 15  1  0
 12 16  1  0
 11 17  1  0
 10 18  1  0
  8 19  1  0
  6 20  1  0
  4 21  1  0
 21 22  2  0
 21 23  1  0
 23 24  1  6
 24 25  1  0
 25 26  1  0
 26 27  1  0
 27 28  2  0
 27 29  1  0
 29 30  1  0
 30 31  1  0
 31 32  1  0
 32 33  1  0
 33 34  1  0
 33 35  1  0
 32 36  1  0
 32 37  1  0
 31 38  1  0
 30 39  1  0
 30 40  1  0
 29 41  1  0
 26 42  1  0
 26 43  1  0
 25 44  1  0
 44 45  2  0
 44 46  1  0
 46 47  2  0
 47 48  1  0
 48 49  2  0
 49 50  1  0
 49 51  1  0
 51 52  2  0
 51 53  1  0
 48 54  1  0
 47 55  1  0
 24 56  1  0
 24 57  1  0
  3 58  1  0
  3 59  1  0
  2 60  1  1
  1 61  1  0
  1 62  1  0
  1 63  1  0
 23  2  1  0
 33 31  1  0
 52 46  1  0
 14  5  1  0
 52 23  1  0
 14  9  1  0
M  END
>  <cnnaffinities>  (22) 
[6.07397, 6.81058]

>  <score>  (22) 
6.07397

>  <index>  (22) 
21

>  <Smiles>  (22) 
C([C@]1(C(N(c2c(nc(c3c(c(c(c(c23)[H])[H])[H])[H])[H])[H])C(=O)[C@]21C(N(C(C(=O)N(C(C1(C(C1([H])[H])([H])[H])[H])([H])[H])[H])([H])[H])C(=O)c1c(c(c(F)c(c21)[H])[H])[H])([H])[H])([H])[H])[H])([H])([H])[H]

>  <h>  (22) 
<NA>

>  <Training>  (22) 
True

>  <Success>  (22) 
True

>  <enamine_searched>  (22) 
False

>  <enamine_id>  (22) 
nan

$$$$

     RDKit          3D

 68 73  0  0  0  0  0  0  0  0999 V2000
   -7.3088    3.3914  -21.9822 C   0  0  0  0  0  0  0  0  0  0  0  0
   -8.2556    2.8578  -22.9479 N   0  0  0  0  0  0  0  0  0  0  0  0
   -7.7776    2.1447  -24.0042 C   0  0  0  0  0  0  0  0  0  0  0  0
   -6.5790    1.9685  -24.1838 O   0  0  0  0  0  0  0  0  0  0  0  0
   -8.8262    1.5618  -24.9593 C   0  0  0  0  0  0  0  0  0  0  0  0
   -9.4705    0.4027  -24.3628 N   0  0  0  0  0  0  0  0  0  0  0  0
   -8.6671   -0.8000  -24.1746 C   0  0  0  0  0  0  0  0  0  0  0  0
   -9.0265   -1.5444  -22.8594 C   0  0  2  0  0  0  0  0  0  0  0  0
   -8.4932   -0.7651  -21.6418 C   0  0  0  0  0  0  0  0  0  0  0  0
   -8.9759    0.2229  -21.1248 O   0  0  0  0  0  0  0  0  0  0  0  0
   -7.3456   -1.3845  -21.2032 N   0  0  0  0  0  0  0  0  0  0  0  0
   -6.5902   -0.8097  -20.1582 C   0  0  0  0  0  0  0  0  0  0  0  0
   -6.9413   -1.0187  -18.8503 C   0  0  0  0  0  0  0  0  0  0  0  0
   -6.2485   -0.5252  -17.7944 N   0  0  0  0  0  0  0  0  0  0  0  0
   -5.1930    0.2099  -18.0564 C   0  0  0  0  0  0  0  0  0  0  0  0
   -4.7397    0.5251  -19.3696 C   0  0  0  0  0  0  0  0  0  0  0  0
   -3.6098    1.3478  -19.6185 C   0  0  0  0  0  0  0  0  0  0  0  0
   -3.2328    1.6489  -20.8979 C   0  0  0  0  0  0  0  0  0  0  0  0
   -3.9745    1.1566  -21.9988 C   0  0  0  0  0  0  0  0  0  0  0  0
   -5.0722    0.3600  -21.7875 C   0  0  0  0  0  0  0  0  0  0  0  0
   -5.4701    0.0143  -20.4665 C   0  0  0  0  0  0  0  0  0  0  0  0
   -5.6665    0.0189  -22.6327 H   0  0  0  0  0  0  0  0  0  0  0  0
   -3.6914    1.4222  -23.0128 H   0  0  0  0  0  0  0  0  0  0  0  0
   -2.3699    2.2846  -21.0794 H   0  0  0  0  0  0  0  0  0  0  0  0
   -3.0713    1.7452  -18.7616 H   0  0  0  0  0  0  0  0  0  0  0  0
   -4.6364    0.6053  -17.2051 H   0  0  0  0  0  0  0  0  0  0  0  0
   -7.8184   -1.6181  -18.6108 H   0  0  0  0  0  0  0  0  0  0  0  0
   -6.9578   -2.5574  -21.9659 C   0  0  0  0  0  0  0  0  0  0  0  0
   -8.2654   -2.8909  -22.6962 C   0  0  2  0  0  0  0  0  0  0  0  0
   -8.1415   -3.7374  -23.9747 C   0  0  0  0  0  0  0  0  0  0  0  0
   -7.7677   -5.1248  -23.7600 N   0  0  0  0  0  0  0  0  0  0  0  0
   -6.4441   -5.4765  -23.5004 C   0  0  0  0  0  0  0  0  0  0  0  0
   -5.3783   -4.8483  -24.1614 C   0  0  0  0  0  0  0  0  0  0  0  0
   -4.0786   -5.2752  -23.9300 C   0  0  0  0  0  0  0  0  0  0  0  0
   -3.7887   -6.2689  -23.0007 C   0  0  0  0  0  0  0  0  0  0  0  0
   -4.8393   -6.8744  -22.3215 C   0  0  0  0  0  0  0  0  0  0  0  0
   -6.1494   -6.5214  -22.6106 C   0  0  0  0  0  0  0  0  0  0  0  0
   -6.9612   -7.0549  -22.1304 H   0  0  0  0  0  0  0  0  0  0  0  0
   -4.6282   -7.6342  -21.5701 H   0  0  0  0  0  0  0  0  0  0  0  0
   -2.7575   -6.5810  -22.8412 H   0  0  0  0  0  0  0  0  0  0  0  0
   -3.2833   -4.7929  -24.4936 H   0  0  0  0  0  0  0  0  0  0  0  0
   -5.5588   -4.0459  -24.8759 H   0  0  0  0  0  0  0  0  0  0  0  0
   -8.4335   -5.6392  -23.1972 H   0  0  0  0  0  0  0  0  0  0  0  0
   -9.1139   -3.7320  -24.4858 H   0  0  0  0  0  0  0  0  0  0  0  0
   -7.4118   -3.2745  -24.6526 H   0  0  0  0  0  0  0  0  0  0  0  0
   -8.8445   -3.4712  -21.9722 H   0  0  0  0  0  0  0  0  0  0  0  0
   -6.1277   -2.3440  -22.6576 H   0  0  0  0  0  0  0  0  0  0  0  0
   -6.6294   -3.3694  -21.3081 H   0  0  0  0  0  0  0  0  0  0  0  0
  -10.5295   -1.6638  -22.7550 C   0  0  0  0  0  0  0  0  0  0  0  0
  -11.1008   -2.5752  -21.8592 C   0  0  0  0  0  0  0  0  0  0  0  0
  -12.4660   -2.6346  -21.6797 C   0  0  0  0  0  0  0  0  0  0  0  0
  -13.0480   -3.7632  -20.4820 Cl  0  0  0  0  0  0  0  0  0  0  0  0
  -13.3220   -1.7961  -22.3977 C   0  0  0  0  0  0  0  0  0  0  0  0
  -12.7608   -0.8741  -23.2642 C   0  0  0  0  0  0  0  0  0  0  0  0
  -11.3786   -0.7693  -23.4170 C   0  0  0  0  0  0  0  0  0  0  0  0
  -10.8361    0.3749  -24.2327 C   0  0  0  0  0  0  0  0  0  0  0  0
  -11.5679    1.2285  -24.7180 O   0  0  0  0  0  0  0  0  0  0  0  0
  -13.3803   -0.1853  -23.8260 H   0  0  0  0  0  0  0  0  0  0  0  0
  -14.3961   -1.8393  -22.2557 H   0  0  0  0  0  0  0  0  0  0  0  0
  -10.5013   -3.2382  -21.2465 H   0  0  0  0  0  0  0  0  0  0  0  0
   -7.6119   -0.5038  -24.1567 H   0  0  0  0  0  0  0  0  0  0  0  0
   -8.8237   -1.4671  -25.0347 H   0  0  0  0  0  0  0  0  0  0  0  0
   -8.3188    1.3032  -25.8980 H   0  0  0  0  0  0  0  0  0  0  0  0
   -9.6184    2.2796  -25.1899 H   0  0  0  0  0  0  0  0  0  0  0  0
   -9.1888    2.6541  -22.6149 H   0  0  0  0  0  0  0  0  0  0  0  0
   -6.7629    2.5852  -21.4719 H   0  0  0  0  0  0  0  0  0  0  0  0
   -7.8407    4.0098  -21.2536 H   0  0  0  0  0  0  0  0  0  0  0  0
   -6.5699    4.0067  -22.5017 H   0  0  0  0  0  0  0  0  0  0  0  0
  1  2  1  0
  2  3  1  0
  3  4  2  0
  3  5  1  0
  5  6  1  0
  6  7  1  0
  8  7  1  6
  8  9  1  0
  9 10  2  0
  9 11  1  0
 11 12  1  0
 12 13  2  0
 13 14  1  0
 14 15  2  0
 15 16  1  0
 16 17  2  0
 17 18  1  0
 18 19  2  0
 19 20  1  0
 20 21  2  0
 20 22  1  0
 19 23  1  0
 18 24  1  0
 17 25  1  0
 15 26  1  0
 13 27  1  0
 11 28  1  0
 28 29  1  0
 29 30  1  0
 30 31  1  0
 31 32  1  0
 32 33  2  0
 33 34  1  0
 34 35  2  0
 35 36  1  0
 36 37  2  0
 37 38  1  0
 36 39  1  0
 35 40  1  0
 34 41  1  0
 33 42  1  0
 31 43  1  0
 30 44  1  0
 30 45  1  0
 29 46  1  1
 28 47  1  0
 28 48  1  0
  8 49  1  0
 49 50  2  0
 50 51  1  0
 51 52  1  0
 51 53  2  0
 53 54  1  0
 54 55  2  0
 55 56  1  0
 56 57  2  0
 54 58  1  0
 53 59  1  0
 50 60  1  0
  7 61  1  0
  7 62  1  0
  5 63  1  0
  5 64  1  0
  2 65  1  0
  1 66  1  0
  1 67  1  0
  1 68  1  0
 56  6  1  0
 29  8  1  0
 37 32  1  0
 55 49  1  0
 21 12  1  0
 21 16  1  0
M  END
>  <cnnaffinities>  (23) 
[6.54173]

>  <score>  (23) 
6.54173

>  <index>  (23) 
23

>  <Smiles>  (23) 
C(N(C(=O)C(N1C([C@@]2(C(=O)N(c3c(nc(c4c(c(c(c(c34)[H])[H])[H])[H])[H])[H])C([C@@]2(C(N(c2c(c(c(c(c2[H])[H])[H])[H])[H])[H])([H])[H])[H])([H])[H])c2c(c(Cl)c(c(c2C1=O)[H])[H])[H])([H])[H])([H])[H])[H])([H])([H])[H]

>  <h>  (23) 
<NA>

>  <Training>  (23) 
True

>  <Success>  (23) 
True

>  <enamine_searched>  (23) 
False

>  <enamine_id>  (23) 
nan

$$$$

     RDKit          3D

 65 70  0  0  0  0  0  0  0  0999 V2000
   -9.7815    3.1585  -25.9869 O   0  0  0  0  0  0  0  0  0  0  0  0
  -10.0860    2.3745  -25.0968 C   0  0  0  0  0  0  0  0  0  0  0  0
  -10.8524    1.0880  -25.4399 C   0  0  0  0  0  0  0  0  0  0  0  0
  -10.5571   -0.0605  -24.5443 N   0  0  1  0  0  4  0  0  0  0  0  0
  -11.5837   -1.1619  -24.5257 C   0  0  0  0  0  0  0  0  0  0  0  0
  -11.1818   -2.2410  -23.5430 C   0  0  0  0  0  0  0  0  0  0  0  0
  -12.1168   -2.9147  -22.7573 C   0  0  0  0  0  0  0  0  0  0  0  0
  -11.7233   -3.8294  -21.7795 C   0  0  0  0  0  0  0  0  0  0  0  0
  -10.3610   -4.1053  -21.6638 C   0  0  0  0  0  0  0  0  0  0  0  0
   -9.5661   -4.9205  -20.3417 Cl  0  0  0  0  0  0  0  0  0  0  0  0
   -9.4548   -3.5900  -22.5613 C   0  0  0  0  0  0  0  0  0  0  0  0
   -9.8236   -2.5224  -23.3619 C   0  0  0  0  0  0  0  0  0  0  0  0
   -8.7538   -1.5170  -23.7267 C   0  0  2  0  0  0  0  0  0  0  0  0
   -7.3619   -2.1405  -23.9152 C   0  0  0  0  0  0  0  0  0  0  0  0
   -6.6763   -2.0324  -22.5406 C   0  0  0  0  0  0  0  0  0  0  0  0
   -7.3084   -0.8533  -21.9683 N   0  0  0  0  0  0  0  0  0  0  0  0
   -6.8280   -0.3505  -20.7395 C   0  0  0  0  0  0  0  0  0  0  0  0
   -7.4413   -0.6330  -19.5489 C   0  0  0  0  0  0  0  0  0  0  0  0
   -6.9186   -0.3161  -18.3365 N   0  0  0  0  0  0  0  0  0  0  0  0
   -5.7555    0.2894  -18.3189 C   0  0  0  0  0  0  0  0  0  0  0  0
   -5.0151    0.6416  -19.4850 C   0  0  0  0  0  0  0  0  0  0  0  0
   -3.7476    1.2833  -19.4392 C   0  0  0  0  0  0  0  0  0  0  0  0
   -3.0818    1.5885  -20.5932 C   0  0  0  0  0  0  0  0  0  0  0  0
   -3.6420    1.2803  -21.8528 C   0  0  0  0  0  0  0  0  0  0  0  0
   -4.8691    0.6682  -21.9200 C   0  0  0  0  0  0  0  0  0  0  0  0
   -5.5712    0.3216  -20.7377 C   0  0  0  0  0  0  0  0  0  0  0  0
   -5.3246    0.4518  -22.8782 H   0  0  0  0  0  0  0  0  0  0  0  0
   -3.1129    1.5303  -22.7668 H   0  0  0  0  0  0  0  0  0  0  0  0
   -2.1151    2.0843  -20.5573 H   0  0  0  0  0  0  0  0  0  0  0  0
   -3.3309    1.5443  -18.4691 H   0  0  0  0  0  0  0  0  0  0  0  0
   -5.3487    0.5430  -17.3399 H   0  0  0  0  0  0  0  0  0  0  0  0
   -8.3799   -1.1777  -19.5365 H   0  0  0  0  0  0  0  0  0  0  0  0
   -8.5431   -0.6086  -22.4946 C   0  0  0  0  0  0  0  0  0  0  0  0
   -9.3633    0.1942  -22.0709 O   0  0  0  0  0  0  0  0  0  0  0  0
   -5.5907   -1.9043  -22.5944 H   0  0  0  0  0  0  0  0  0  0  0  0
   -6.8585   -2.9003  -21.8879 H   0  0  0  0  0  0  0  0  0  0  0  0
   -6.7984   -1.5576  -24.6524 H   0  0  0  0  0  0  0  0  0  0  0  0
   -7.4212   -3.1727  -24.2683 H   0  0  0  0  0  0  0  0  0  0  0  0
   -9.2218   -0.6621  -24.8955 C   0  0  0  0  0  0  0  0  0  0  0  0
   -9.3483   -1.2757  -25.7927 H   0  0  0  0  0  0  0  0  0  0  0  0
   -8.5008    0.1309  -25.1131 H   0  0  0  0  0  0  0  0  0  0  0  0
   -8.4455   -3.9780  -22.5179 H   0  0  0  0  0  0  0  0  0  0  0  0
  -12.4776   -4.2776  -21.1452 H   0  0  0  0  0  0  0  0  0  0  0  0
  -13.1727   -2.6647  -22.8276 H   0  0  0  0  0  0  0  0  0  0  0  0
  -12.5603   -0.7388  -24.2717 H   0  0  0  0  0  0  0  0  0  0  0  0
  -11.6578   -1.5635  -25.5413 H   0  0  0  0  0  0  0  0  0  0  0  0
  -10.4994    0.2489  -23.5578 H   0  0  0  0  0  0  0  0  0  0  0  0
  -11.9203    1.3202  -25.4362 H   0  0  0  0  0  0  0  0  0  0  0  0
  -10.5706    0.8468  -26.4678 H   0  0  0  0  0  0  0  0  0  0  0  0
   -9.8149    2.5906  -23.7793 N   0  0  0  0  0  0  0  0  0  0  0  0
   -9.3947    3.8912  -23.2933 C   0  0  0  0  0  0  0  0  0  0  0  0
  -10.5607    4.8016  -22.8931 C   0  0  1  0  0  0  0  0  0  0  0  0
  -11.5158    5.1866  -24.0574 C   0  0  0  0  0  0  0  0  0  0  0  0
  -12.6007    4.2698  -23.4697 C   0  0  1  0  0  0  0  0  0  0  0  0
  -12.7344    3.0857  -24.1871 F   0  0  0  0  0  0  0  0  0  0  0  0
  -11.7588    4.0967  -22.1981 C   0  0  0  0  0  0  0  0  0  0  0  0
  -12.1747    4.6544  -21.3609 H   0  0  0  0  0  0  0  0  0  0  0  0
  -11.6047    3.0605  -21.8862 H   0  0  0  0  0  0  0  0  0  0  0  0
  -13.6032    4.6899  -23.3388 H   0  0  0  0  0  0  0  0  0  0  0  0
  -11.7967    6.2428  -24.0557 H   0  0  0  0  0  0  0  0  0  0  0  0
  -11.1834    4.9089  -25.0615 H   0  0  0  0  0  0  0  0  0  0  0  0
  -10.1438    5.6539  -22.3442 H   0  0  0  0  0  0  0  0  0  0  0  0
   -8.7260    3.7366  -22.4341 H   0  0  0  0  0  0  0  0  0  0  0  0
   -8.8187    4.3612  -24.0970 H   0  0  0  0  0  0  0  0  0  0  0  0
   -9.9194    1.8712  -23.0776 H   0  0  0  0  0  0  0  0  0  0  0  0
  1  2  2  0
  2  3  1  0
  3  4  1  0
  4  5  1  0
  5  6  1  0
  6  7  2  0
  7  8  1  0
  8  9  2  0
  9 10  1  0
  9 11  1  0
 11 12  2  0
 12 13  1  0
 13 14  1  6
 14 15  1  0
 15 16  1  0
 16 17  1  0
 17 18  2  0
 18 19  1  0
 19 20  2  0
 20 21  1  0
 21 22  2  0
 22 23  1  0
 23 24  2  0
 24 25  1  0
 25 26  2  0
 25 27  1  0
 24 28  1  0
 23 29  1  0
 22 30  1  0
 20 31  1  0
 18 32  1  0
 16 33  1  0
 33 34  2  0
 15 35  1  0
 15 36  1  0
 14 37  1  0
 14 38  1  0
 13 39  1  0
 39 40  1  0
 39 41  1  0
 11 42  1  0
  8 43  1  0
  7 44  1  0
  5 45  1  0
  5 46  1  0
  4 47  1  1
  3 48  1  0
  3 49  1  0
  2 50  1  0
 50 51  1  0
 51 52  1  0
 52 53  1  0
 53 54  1  0
 54 55  1  0
 54 56  1  0
 56 57  1  0
 56 58  1  0
 54 59  1  1
 53 60  1  0
 53 61  1  0
 52 62  1  1
 51 63  1  0
 51 64  1  0
 50 65  1  0
 39  4  1  0
 56 52  1  0
 12  6  1  0
 33 13  1  0
 26 17  1  0
 26 21  1  0
M  CHG  1   4   1
M  END
>  <cnnaffinities>  (24) 
[6.35873]

>  <score>  (24) 
6.35873

>  <index>  (24) 
24

>  <Smiles>  (24) 
O=C(C([N@+]1(C(c2c(c(c(Cl)c(c2[C@@]2(C(C(N(c3c(nc(c4c(c(c(c(c34)[H])[H])[H])[H])[H])[H])C2=O)([H])[H])([H])[H])C1([H])[H])[H])[H])[H])([H])[H])[H])([H])[H])N(C([C@]1(C([C@@](F)(C1([H])[H])[H])([H])[H])[H])([H])[H])[H]

>  <h>  (24) 
<NA>

>  <Training>  (24) 
True

>  <Success>  (24) 
True

>  <enamine_searched>  (24) 
False

>  <enamine_id>  (24) 
nan

$$$$

     RDKit          3D

 70 75  0  0  0  0  0  0  0  0999 V2000
   -5.7461   -7.6270  -25.6311 O   0  0  0  0  0  0  0  0  0  0  0  0
   -5.6482   -7.1161  -24.5296 C   0  0  0  0  0  0  0  0  0  0  0  0
   -6.8195   -6.3852  -23.8551 C   0  0  0  0  0  0  0  0  0  0  0  0
   -6.7897   -4.8856  -23.9492 N   0  0  1  0  0  4  0  0  0  0  0  0
   -6.7534   -4.5110  -25.4194 C   0  0  0  0  0  0  0  0  0  0  0  0
   -6.7730   -3.0213  -25.6314 C   0  0  0  0  0  0  0  0  0  0  0  0
   -6.2825   -2.4756  -26.8164 C   0  0  0  0  0  0  0  0  0  0  0  0
   -6.3062   -1.1062  -27.0309 C   0  0  0  0  0  0  0  0  0  0  0  0
   -6.8214   -0.2747  -26.0445 C   0  0  0  0  0  0  0  0  0  0  0  0
   -6.8409    1.4453  -26.2954 Cl  0  0  0  0  0  0  0  0  0  0  0  0
   -7.3100   -0.8017  -24.8609 C   0  0  0  0  0  0  0  0  0  0  0  0
   -7.3007   -2.1817  -24.6547 C   0  0  0  0  0  0  0  0  0  0  0  0
   -7.8139   -2.7128  -23.3336 C   0  0  2  0  0  0  0  0  0  0  0  0
   -6.8190   -2.3804  -22.2298 C   0  0  0  0  0  0  0  0  0  0  0  0
   -5.7200   -2.9118  -22.2131 O   0  0  0  0  0  0  0  0  0  0  0  0
   -7.2741   -1.4774  -21.2929 N   0  0  0  0  0  0  0  0  0  0  0  0
   -6.5364   -0.8824  -20.2402 C   0  0  0  0  0  0  0  0  0  0  0  0
   -6.9090   -1.0680  -18.9283 C   0  0  0  0  0  0  0  0  0  0  0  0
   -6.2410   -0.5633  -17.8599 N   0  0  0  0  0  0  0  0  0  0  0  0
   -5.1933    0.1898  -18.0969 C   0  0  0  0  0  0  0  0  0  0  0  0
   -4.7425    0.5104  -19.4081 C   0  0  0  0  0  0  0  0  0  0  0  0
   -3.6258    1.3588  -19.6259 C   0  0  0  0  0  0  0  0  0  0  0  0
   -3.2452    1.6940  -20.8976 C   0  0  0  0  0  0  0  0  0  0  0  0
   -3.9661    1.2008  -22.0120 C   0  0  0  0  0  0  0  0  0  0  0  0
   -5.0429    0.3697  -21.8314 C   0  0  0  0  0  0  0  0  0  0  0  0
   -5.4404   -0.0124  -20.5172 C   0  0  0  0  0  0  0  0  0  0  0  0
   -5.6092    0.0111  -22.6868 H   0  0  0  0  0  0  0  0  0  0  0  0
   -3.6693    1.4881  -23.0162 H   0  0  0  0  0  0  0  0  0  0  0  0
   -2.3908    2.3438  -21.0642 H   0  0  0  0  0  0  0  0  0  0  0  0
   -3.0983    1.7488  -18.7606 H   0  0  0  0  0  0  0  0  0  0  0  0
   -4.6444    0.5923  -17.2409 H   0  0  0  0  0  0  0  0  0  0  0  0
   -7.7720   -1.6868  -18.6749 H   0  0  0  0  0  0  0  0  0  0  0  0
   -8.2766   -1.4110  -21.2106 H   0  0  0  0  0  0  0  0  0  0  0  0
   -8.0064   -4.2292  -23.3191 C   0  0  0  0  0  0  0  0  0  0  0  0
   -8.9012   -4.5134  -23.8801 H   0  0  0  0  0  0  0  0  0  0  0  0
   -8.1163   -4.5759  -22.2881 H   0  0  0  0  0  0  0  0  0  0  0  0
   -8.7469   -2.2078  -23.0813 H   0  0  0  0  0  0  0  0  0  0  0  0
   -7.6877   -0.1357  -24.0910 H   0  0  0  0  0  0  0  0  0  0  0  0
   -5.9292   -0.6848  -27.9543 H   0  0  0  0  0  0  0  0  0  0  0  0
   -5.8818   -3.1361  -27.5835 H   0  0  0  0  0  0  0  0  0  0  0  0
   -7.6349   -4.9816  -25.8740 H   0  0  0  0  0  0  0  0  0  0  0  0
   -5.8791   -4.9710  -25.8822 H   0  0  0  0  0  0  0  0  0  0  0  0
   -5.9733   -4.4678  -23.4471 H   0  0  0  0  0  0  0  0  0  0  0  0
   -7.7002   -6.7646  -24.3831 H   0  0  0  0  0  0  0  0  0  0  0  0
   -6.8705   -6.7053  -22.8116 H   0  0  0  0  0  0  0  0  0  0  0  0
   -4.4969   -7.1699  -23.7906 N   0  0  0  0  0  0  0  0  0  0  0  0
   -3.3061   -7.8174  -24.1988 C   0  0  0  0  0  0  0  0  0  0  0  0
   -2.0862   -7.2074  -23.9203 C   0  0  0  0  0  0  0  0  0  0  0  0
   -0.9020   -7.7720  -24.3688 C   0  0  0  0  0  0  0  0  0  0  0  0
   -0.9273   -8.9930  -25.0399 C   0  0  0  0  0  0  0  0  0  0  0  0
    0.2947   -9.5759  -25.4796 N   0  0  0  0  0  0  0  0  0  0  0  0
    1.3093   -9.8750  -24.4737 C   0  0  0  0  0  0  0  0  0  0  0  0
    2.6316  -10.2269  -25.1324 C   0  0  0  0  0  0  0  0  0  0  0  0
    2.4140  -11.1799  -26.1442 O   0  0  0  0  0  0  0  0  0  0  0  0
    1.6883  -10.6261  -27.2058 C   0  0  0  0  0  0  0  0  0  0  0  0
    0.3917   -9.9486  -26.7947 C   0  0  0  0  0  0  0  0  0  0  0  0
   -0.4695   -9.7194  -27.6237 O   0  0  0  0  0  0  0  0  0  0  0  0
    2.2802   -9.8738  -27.7465 H   0  0  0  0  0  0  0  0  0  0  0  0
    1.4400  -11.4247  -27.9039 H   0  0  0  0  0  0  0  0  0  0  0  0
    3.1330   -9.3394  -25.5430 H   0  0  0  0  0  0  0  0  0  0  0  0
    3.3170  -10.6818  -24.4130 H   0  0  0  0  0  0  0  0  0  0  0  0
    1.4428   -9.0180  -23.8077 H   0  0  0  0  0  0  0  0  0  0  0  0
    0.9734  -10.7194  -23.8626 H   0  0  0  0  0  0  0  0  0  0  0  0
   -2.1415   -9.6494  -25.2401 C   0  0  0  0  0  0  0  0  0  0  0  0
   -3.3273   -9.0551  -24.8348 C   0  0  0  0  0  0  0  0  0  0  0  0
   -4.2743   -9.5419  -25.0144 H   0  0  0  0  0  0  0  0  0  0  0  0
   -2.1594  -10.6211  -25.7281 H   0  0  0  0  0  0  0  0  0  0  0  0
    0.0422   -7.2494  -24.2321 H   0  0  0  0  0  0  0  0  0  0  0  0
   -2.0659   -6.3093  -23.3225 H   0  0  0  0  0  0  0  0  0  0  0  0
   -4.4269   -6.5773  -22.9811 H   0  0  0  0  0  0  0  0  0  0  0  0
  1  2  2  0
  2  3  1  0
  3  4  1  0
  4  5  1  0
  5  6  1  0
  6  7  2  0
  7  8  1  0
  8  9  2  0
  9 10  1  0
  9 11  1  0
 11 12  2  0
 12 13  1  0
 13 14  1  0
 14 15  2  0
 14 16  1  0
 16 17  1  0
 17 18  2  0
 18 19  1  0
 19 20  2  0
 20 21  1  0
 21 22  2  0
 22 23  1  0
 23 24  2  0
 24 25  1  0
 25 26  2  0
 25 27  1  0
 24 28  1  0
 23 29  1  0
 22 30  1  0
 20 31  1  0
 18 32  1  0
 16 33  1  0
 13 34  1  0
 34 35  1  0
 34 36  1  0
 13 37  1  1
 11 38  1  0
  8 39  1  0
  7 40  1  0
  5 41  1  0
  5 42  1  0
  4 43  1  1
  3 44  1  0
  3 45  1  0
  2 46  1  0
 46 47  1  0
 47 48  2  0
 48 49  1  0
 49 50  2  0
 50 51  1  0
 51 52  1  0
 52 53  1  0
 53 54  1  0
 54 55  1  0
 55 56  1  0
 56 57  2  0
 55 58  1  0
 55 59  1  0
 53 60  1  0
 53 61  1  0
 52 62  1  0
 52 63  1  0
 50 64  1  0
 64 65  2  0
 65 66  1  0
 64 67  1  0
 49 68  1  0
 48 69  1  0
 46 70  1  0
 34  4  1  0
 65 47  1  0
 12  6  1  0
 26 17  1  0
 56 51  1  0
 26 21  1  0
M  CHG  1   4   1
M  END
>  <cnnaffinities>  (25) 
[6.2482]

>  <score>  (25) 
6.2482

>  <index>  (25) 
25

>  <Smiles>  (25) 
O=C(C([N@+]1(C(c2c(c(c(Cl)c(c2[C@](C(=O)N(c2c(nc(c3c(c(c(c(c23)[H])[H])[H])[H])[H])[H])[H])(C1([H])[H])[H])[H])[H])[H])([H])[H])[H])([H])[H])N(c1c(c(c(N2C(C(OC(C2=O)([H])[H])([H])[H])([H])[H])c(c1[H])[H])[H])[H])[H]

>  <h>  (25) 
<NA>

>  <Training>  (25) 
True

>  <Success>  (25) 
True

>  <enamine_searched>  (25) 
False

>  <enamine_id>  (25) 
nan

$$$$

     RDKit          3D

 55 60  0  0  0  0  0  0  0  0999 V2000
  -10.0229   -0.8792  -23.4788 C   0  0  0  0  0  0  0  0  0  0  0  0
   -8.6442   -1.2358  -22.9204 C   0  0  1  0  0  0  0  0  0  0  0  0
   -8.1780   -0.3043  -21.7839 C   0  0  0  0  0  0  0  0  0  0  0  0
   -7.2225   -1.1211  -21.0430 N   0  0  0  0  0  0  0  0  0  0  0  0
   -6.3921   -0.6286  -20.0018 C   0  0  0  0  0  0  0  0  0  0  0  0
   -6.6709   -0.8891  -18.6820 C   0  0  0  0  0  0  0  0  0  0  0  0
   -6.0001   -0.3358  -17.6374 N   0  0  0  0  0  0  0  0  0  0  0  0
   -5.0015    0.4666  -17.9149 C   0  0  0  0  0  0  0  0  0  0  0  0
   -4.5597    0.7612  -19.2329 C   0  0  0  0  0  0  0  0  0  0  0  0
   -3.4310    1.5852  -19.4712 C   0  0  0  0  0  0  0  0  0  0  0  0
   -3.0089    1.8265  -20.7468 C   0  0  0  0  0  0  0  0  0  0  0  0
   -3.7034    1.2607  -21.8402 C   0  0  0  0  0  0  0  0  0  0  0  0
   -4.8132    0.4763  -21.6343 C   0  0  0  0  0  0  0  0  0  0  0  0
   -5.2687    0.2033  -20.3181 C   0  0  0  0  0  0  0  0  0  0  0  0
   -5.3485    0.0487  -22.4750 H   0  0  0  0  0  0  0  0  0  0  0  0
   -3.3602    1.4559  -22.8509 H   0  0  0  0  0  0  0  0  0  0  0  0
   -2.1394    2.4530  -20.9291 H   0  0  0  0  0  0  0  0  0  0  0  0
   -2.9288    2.0239  -18.6132 H   0  0  0  0  0  0  0  0  0  0  0  0
   -4.4679    0.9132  -17.0743 H   0  0  0  0  0  0  0  0  0  0  0  0
   -7.4826   -1.5600  -18.4078 H   0  0  0  0  0  0  0  0  0  0  0  0
   -7.3700   -2.4729  -21.2807 C   0  0  0  0  0  0  0  0  0  0  0  0
   -6.7296   -3.3464  -20.7351 O   0  0  0  0  0  0  0  0  0  0  0  0
   -8.4938   -2.6754  -22.3118 C   0  0  1  0  0  0  0  0  0  0  0  0
   -9.7376   -3.1517  -21.5275 C   0  0  0  0  0  0  0  0  0  0  0  0
  -10.7924   -3.6082  -22.4197 N   0  0  0  0  0  0  0  0  0  0  0  0
  -12.1818   -3.4556  -22.0005 C   0  0  0  0  0  0  0  0  0  0  0  0
  -12.9667   -2.3568  -22.6675 C   0  0  0  0  0  0  0  0  0  0  0  0
  -13.6137   -2.2477  -23.9106 C   0  0  0  0  0  0  0  0  0  0  0  0
  -14.2805   -1.0955  -23.9689 N   0  0  0  0  0  0  0  0  0  0  0  0
  -14.0012   -0.5486  -22.8051 N   0  0  0  0  0  0  0  0  0  0  0  0
  -13.2236   -1.2388  -21.9901 N   0  0  0  0  0  0  0  0  0  0  0  0
  -14.3326    0.3733  -22.5776 H   0  0  0  0  0  0  0  0  0  0  0  0
  -13.6436   -2.9513  -24.7255 H   0  0  0  0  0  0  0  0  0  0  0  0
  -12.1761   -3.2207  -20.9364 H   0  0  0  0  0  0  0  0  0  0  0  0
  -12.6807   -4.4168  -22.1424 H   0  0  0  0  0  0  0  0  0  0  0  0
  -10.4775   -4.5884  -23.3289 C   0  0  0  0  0  0  0  0  0  0  0  0
  -11.2719   -5.3904  -23.7696 O   0  0  0  0  0  0  0  0  0  0  0  0
   -9.0724   -4.6393  -23.8065 C   0  0  0  0  0  0  0  0  0  0  0  0
   -8.7481   -5.6133  -24.7552 C   0  0  0  0  0  0  0  0  0  0  0  0
   -7.4674   -5.6966  -25.2654 C   0  0  0  0  0  0  0  0  0  0  0  0
   -6.5268   -4.7859  -24.7906 C   0  0  0  0  0  0  0  0  0  0  0  0
   -5.2783   -4.8522  -25.2838 F   0  0  0  0  0  0  0  0  0  0  0  0
   -6.8209   -3.8349  -23.8305 C   0  0  0  0  0  0  0  0  0  0  0  0
   -8.1265   -3.7363  -23.3293 C   0  0  0  0  0  0  0  0  0  0  0  0
   -6.0213   -3.2032  -23.4568 H   0  0  0  0  0  0  0  0  0  0  0  0
   -7.1937   -6.4412  -26.0079 H   0  0  0  0  0  0  0  0  0  0  0  0
   -9.5284   -6.2980  -25.0747 H   0  0  0  0  0  0  0  0  0  0  0  0
  -10.1203   -2.3267  -20.9202 H   0  0  0  0  0  0  0  0  0  0  0  0
   -9.4155   -3.9545  -20.8455 H   0  0  0  0  0  0  0  0  0  0  0  0
   -9.0337   -0.0018  -21.1526 H   0  0  0  0  0  0  0  0  0  0  0  0
   -7.7073    0.6099  -22.1580 H   0  0  0  0  0  0  0  0  0  0  0  0
   -7.9116   -1.1882  -23.7454 H   0  0  0  0  0  0  0  0  0  0  0  0
  -10.0009    0.0824  -24.0020 H   0  0  0  0  0  0  0  0  0  0  0  0
  -10.3567   -1.6420  -24.1891 H   0  0  0  0  0  0  0  0  0  0  0  0
  -10.7803   -0.8117  -22.6898 H   0  0  0  0  0  0  0  0  0  0  0  0
  1  2  1  0
  2  3  1  0
  3  4  1  0
  4  5  1  0
  5  6  2  0
  6  7  1  0
  7  8  2  0
  8  9  1  0
  9 10  2  0
 10 11  1  0
 11 12  2  0
 12 13  1  0
 13 14  2  0
 13 15  1  0
 12 16  1  0
 11 17  1  0
 10 18  1  0
  8 19  1  0
  6 20  1  0
  4 21  1  0
 21 22  2  0
 21 23  1  0
 23 24  1  1
 24 25  1  0
 25 26  1  0
 26 27  1  0
 27 28  1  0
 28 29  2  0
 29 30  1  0
 30 31  1  0
 30 32  1  0
 28 33  1  0
 26 34  1  0
 26 35  1  0
 25 36  1  0
 36 37  2  0
 36 38  1  0
 38 39  2  0
 39 40  1  0
 40 41  2  0
 41 42  1  0
 41 43  1  0
 43 44  2  0
 43 45  1  0
 40 46  1  0
 39 47  1  0
 24 48  1  0
 24 49  1  0
  3 50  1  0
  3 51  1  0
  2 52  1  6
  1 53  1  0
  1 54  1  0
  1 55  1  0
 23  2  1  0
 31 27  2  0
 44 38  1  0
 14  5  1  0
 44 23  1  0
 14  9  1  0
M  END
>  <cnnaffinities>  (26) 
[6.75705]

>  <score>  (26) 
6.75705

>  <index>  (26) 
26

>  <Smiles>  (26) 
C([C@]1(C(N(c2c(nc(c3c(c(c(c(c23)[H])[H])[H])[H])[H])[H])C(=O)[C@]21C(N(C(c1c(nn(n1)[H])[H])([H])[H])C(=O)c1c(c(c(F)c(c21)[H])[H])[H])([H])[H])([H])[H])[H])([H])([H])[H]

>  <h>  (26) 
<NA>

>  <Training>  (26) 
True

>  <Success>  (26) 
True

>  <enamine_searched>  (26) 
False

>  <enamine_id>  (26) 
nan

$$$$

     RDKit          3D

 58 62  0  0  0  0  0  0  0  0999 V2000
   -7.0486    3.5754  -22.0983 C   0  0  0  0  0  0  0  0  0  0  0  0
   -7.2901    2.5325  -23.1000 N   0  0  0  0  0  4  0  0  0  0  0  0
   -8.4482    2.8273  -23.9983 C   0  0  0  0  0  0  0  0  0  0  0  0
   -8.7226    1.6704  -24.9563 C   0  0  0  0  0  0  0  0  0  0  0  0
   -9.3769    0.5342  -24.3250 N   0  0  0  0  0  0  0  0  0  0  0  0
   -8.6597   -0.7217  -24.2008 C   0  0  0  0  0  0  0  0  0  0  0  0
   -9.0425   -1.4771  -22.9124 C   0  0  2  0  0  0  0  0  0  0  0  0
   -8.5180   -0.7234  -21.6623 C   0  0  0  0  0  0  0  0  0  0  0  0
   -8.9574    0.2981  -21.1768 O   0  0  0  0  0  0  0  0  0  0  0  0
   -7.4098   -1.3880  -21.1865 N   0  0  0  0  0  0  0  0  0  0  0  0
   -6.6029   -0.8088  -20.1700 C   0  0  0  0  0  0  0  0  0  0  0  0
   -6.9112   -1.0389  -18.8550 C   0  0  0  0  0  0  0  0  0  0  0  0
   -6.2065   -0.5458  -17.8070 N   0  0  0  0  0  0  0  0  0  0  0  0
   -5.1708    0.2099  -18.0826 C   0  0  0  0  0  0  0  0  0  0  0  0
   -4.7381    0.5348  -19.4007 C   0  0  0  0  0  0  0  0  0  0  0  0
   -3.6118    1.3684  -19.6433 C   0  0  0  0  0  0  0  0  0  0  0  0
   -3.2268    1.6669  -20.9216 C   0  0  0  0  0  0  0  0  0  0  0  0
   -3.9463    1.1404  -22.0164 C   0  0  0  0  0  0  0  0  0  0  0  0
   -5.0383    0.3279  -21.8086 C   0  0  0  0  0  0  0  0  0  0  0  0
   -5.4727    0.0078  -20.4909 C   0  0  0  0  0  0  0  0  0  0  0  0
   -5.5699   -0.0815  -22.6633 H   0  0  0  0  0  0  0  0  0  0  0  0
   -3.6431    1.3863  -23.0302 H   0  0  0  0  0  0  0  0  0  0  0  0
   -2.3743    2.3168  -21.0976 H   0  0  0  0  0  0  0  0  0  0  0  0
   -3.0846    1.7758  -18.7844 H   0  0  0  0  0  0  0  0  0  0  0  0
   -4.6197    0.6136  -17.2330 H   0  0  0  0  0  0  0  0  0  0  0  0
   -7.7621   -1.6658  -18.6006 H   0  0  0  0  0  0  0  0  0  0  0  0
   -7.0505   -2.5688  -21.9480 C   0  0  0  0  0  0  0  0  0  0  0  0
   -8.3016   -2.8502  -22.8064 C   0  0  2  0  0  0  0  0  0  0  0  0
   -7.9681   -3.5645  -24.1221 C   0  0  0  0  0  0  0  0  0  0  0  0
   -7.5152   -4.5458  -23.9346 H   0  0  0  0  0  0  0  0  0  0  0  0
   -8.8572   -3.7223  -24.7452 H   0  0  0  0  0  0  0  0  0  0  0  0
   -7.2489   -2.9819  -24.7118 H   0  0  0  0  0  0  0  0  0  0  0  0
   -8.9527   -3.5049  -22.2217 H   0  0  0  0  0  0  0  0  0  0  0  0
   -6.8026   -3.3976  -21.2733 H   0  0  0  0  0  0  0  0  0  0  0  0
   -6.1699   -2.3888  -22.5849 H   0  0  0  0  0  0  0  0  0  0  0  0
  -10.5524   -1.5443  -22.8584 C   0  0  0  0  0  0  0  0  0  0  0  0
  -11.1643   -2.4890  -22.0424 C   0  0  0  0  0  0  0  0  0  0  0  0
  -12.5272   -2.5036  -21.8985 C   0  0  0  0  0  0  0  0  0  0  0  0
  -13.0136   -3.4014  -21.0256 F   0  0  0  0  0  0  0  0  0  0  0  0
  -13.3557   -1.6212  -22.5838 C   0  0  0  0  0  0  0  0  0  0  0  0
  -12.7502   -0.6407  -23.3503 C   0  0  0  0  0  0  0  0  0  0  0  0
  -11.3600   -0.5685  -23.4621 C   0  0  0  0  0  0  0  0  0  0  0  0
  -10.7371    0.6042  -24.1635 C   0  0  0  0  0  0  0  0  0  0  0  0
  -11.3879    1.5649  -24.5481 O   0  0  0  0  0  0  0  0  0  0  0  0
  -13.3238    0.1276  -23.8573 H   0  0  0  0  0  0  0  0  0  0  0  0
  -14.4320   -1.6875  -22.4974 H   0  0  0  0  0  0  0  0  0  0  0  0
  -10.6247   -3.2171  -21.4524 H   0  0  0  0  0  0  0  0  0  0  0  0
   -8.8742   -1.3825  -25.0567 H   0  0  0  0  0  0  0  0  0  0  0  0
   -7.5854   -0.5031  -24.1701 H   0  0  0  0  0  0  0  0  0  0  0  0
   -7.7804    1.3125  -25.3879 H   0  0  0  0  0  0  0  0  0  0  0  0
   -9.3754    2.0165  -25.7595 H   0  0  0  0  0  0  0  0  0  0  0  0
   -9.3319    3.0118  -23.3802 H   0  0  0  0  0  0  0  0  0  0  0  0
   -8.2407    3.7367  -24.5708 H   0  0  0  0  0  0  0  0  0  0  0  0
   -6.4254    2.4053  -23.6794 H   0  0  0  0  0  0  0  0  0  0  0  0
   -7.5055    1.6398  -22.6016 H   0  0  0  0  0  0  0  0  0  0  0  0
   -6.1804    3.3000  -21.4995 H   0  0  0  0  0  0  0  0  0  0  0  0
   -7.9252    3.6778  -21.4538 H   0  0  0  0  0  0  0  0  0  0  0  0
   -6.8750    4.5476  -22.5705 H   0  0  0  0  0  0  0  0  0  0  0  0
  1  2  1  0
  2  3  1  0
  3  4  1  0
  4  5  1  0
  5  6  1  0
  7  6  1  6
  7  8  1  0
  8  9  2  0
  8 10  1  0
 10 11  1  0
 11 12  2  0
 12 13  1  0
 13 14  2  0
 14 15  1  0
 15 16  2  0
 16 17  1  0
 17 18  2  0
 18 19  1  0
 19 20  2  0
 19 21  1  0
 18 22  1  0
 17 23  1  0
 16 24  1  0
 14 25  1  0
 12 26  1  0
 10 27  1  0
 27 28  1  0
 28 29  1  0
 29 30  1  0
 29 31  1  0
 29 32  1  0
 28 33  1  1
 27 34  1  0
 27 35  1  0
  7 36  1  0
 36 37  2  0
 37 38  1  0
 38 39  1  0
 38 40  2  0
 40 41  1  0
 41 42  2  0
 42 43  1  0
 43 44  2  0
 41 45  1  0
 40 46  1  0
 37 47  1  0
  6 48  1  0
  6 49  1  0
  4 50  1  0
  4 51  1  0
  3 52  1  0
  3 53  1  0
  2 54  1  0
  2 55  1  0
  1 56  1  0
  1 57  1  0
  1 58  1  0
 43  5  1  0
 28  7  1  0
 42 36  1  0
 20 11  1  0
 20 15  1  0
M  CHG  1   2   1
M  END
>  <cnnaffinities>  (27) 
[5.58465]

>  <score>  (27) 
5.58465

>  <index>  (27) 
27

>  <Smiles>  (27) 
C([N+](C(C(N1C([C@@]2(C(=O)N(c3c(nc(c4c(c(c(c(c34)[H])[H])[H])[H])[H])[H])C([C@@]2(C([H])([H])[H])[H])([H])[H])c2c(c(F)c(c(c2C1=O)[H])[H])[H])([H])[H])([H])[H])([H])[H])([H])[H])([H])([H])[H]

>  <h>  (27) 
<NA>

>  <Training>  (27) 
True

>  <Success>  (27) 
True

>  <enamine_searched>  (27) 
False

>  <enamine_id>  (27) 
nan

$$$$

     RDKit          3D

 64 68  0  0  0  0  0  0  0  0999 V2000
   -7.4535    3.3746  -21.8110 C   0  0  0  0  0  0  0  0  0  0  0  0
   -8.3772    2.9230  -22.8323 N   0  0  0  0  0  0  0  0  0  0  0  0
   -7.8422    2.1947  -23.8479 C   0  0  0  0  0  0  0  0  0  0  0  0
   -6.6352    2.0436  -23.9759 O   0  0  0  0  0  0  0  0  0  0  0  0
   -8.8274    1.5847  -24.8376 C   0  0  0  0  0  0  0  0  0  0  0  0
   -9.4896    0.4164  -24.3046 N   0  0  0  0  0  0  0  0  0  0  0  0
   -8.7226   -0.8092  -24.1733 C   0  0  0  0  0  0  0  0  0  0  0  0
   -9.0621   -1.5545  -22.8694 C   0  0  2  0  0  0  0  0  0  0  0  0
   -8.5365   -0.7782  -21.6412 C   0  0  0  0  0  0  0  0  0  0  0  0
   -9.0234    0.2087  -21.1265 O   0  0  0  0  0  0  0  0  0  0  0  0
   -7.3925   -1.3985  -21.2005 N   0  0  0  0  0  0  0  0  0  0  0  0
   -6.6007   -0.8216  -20.1752 C   0  0  0  0  0  0  0  0  0  0  0  0
   -6.9212   -1.0455  -18.8609 C   0  0  0  0  0  0  0  0  0  0  0  0
   -6.2271   -0.5445  -17.8083 N   0  0  0  0  0  0  0  0  0  0  0  0
   -5.1861    0.2061  -18.0783 C   0  0  0  0  0  0  0  0  0  0  0  0
   -4.7426    0.5205  -19.3937 C   0  0  0  0  0  0  0  0  0  0  0  0
   -3.6185    1.3541  -19.6390 C   0  0  0  0  0  0  0  0  0  0  0  0
   -3.2327    1.6518  -20.9156 C   0  0  0  0  0  0  0  0  0  0  0  0
   -3.9565    1.1350  -22.0170 C   0  0  0  0  0  0  0  0  0  0  0  0
   -5.0490    0.3270  -21.8086 C   0  0  0  0  0  0  0  0  0  0  0  0
   -5.4691   -0.0051  -20.4907 C   0  0  0  0  0  0  0  0  0  0  0  0
   -5.6116   -0.0405  -22.6640 H   0  0  0  0  0  0  0  0  0  0  0  0
   -3.6604    1.3883  -23.0301 H   0  0  0  0  0  0  0  0  0  0  0  0
   -2.3775    2.3002  -21.0937 H   0  0  0  0  0  0  0  0  0  0  0  0
   -3.0894    1.7642  -18.7821 H   0  0  0  0  0  0  0  0  0  0  0  0
   -4.6249    0.6056  -17.2325 H   0  0  0  0  0  0  0  0  0  0  0  0
   -7.7842   -1.6623  -18.6145 H   0  0  0  0  0  0  0  0  0  0  0  0
   -7.0316   -2.5929  -21.9348 C   0  0  0  0  0  0  0  0  0  0  0  0
   -8.3003   -2.9113  -22.7490 C   0  0  2  0  0  0  0  0  0  0  0  0
   -8.0399   -3.6930  -24.0457 C   0  0  0  0  0  0  0  0  0  0  0  0
   -7.4471   -5.3428  -23.6905 S   0  0  0  0  0  0  0  0  0  0  0  0
   -6.0896   -5.2530  -23.1704 O   0  0  0  0  0  0  0  0  0  0  0  0
   -8.4774   -6.0662  -22.9546 O   0  0  0  0  0  0  0  0  0  0  0  0
   -7.2763   -5.9863  -25.2213 N   0  0  0  0  0  0  0  0  0  0  0  0
   -8.4736   -6.3710  -25.9670 C   0  0  0  0  0  0  0  0  0  0  0  0
   -8.9958   -5.4751  -26.3103 H   0  0  0  0  0  0  0  0  0  0  0  0
   -9.1698   -6.9823  -25.3848 H   0  0  0  0  0  0  0  0  0  0  0  0
   -8.1562   -6.9278  -26.8546 H   0  0  0  0  0  0  0  0  0  0  0  0
   -6.6123   -6.7463  -25.1238 H   0  0  0  0  0  0  0  0  0  0  0  0
   -8.9596   -3.8030  -24.6328 H   0  0  0  0  0  0  0  0  0  0  0  0
   -7.2716   -3.2213  -24.6653 H   0  0  0  0  0  0  0  0  0  0  0  0
   -8.9219   -3.5661  -22.1414 H   0  0  0  0  0  0  0  0  0  0  0  0
   -6.1740   -2.4075  -22.5951 H   0  0  0  0  0  0  0  0  0  0  0  0
   -6.7600   -3.4009  -21.2491 H   0  0  0  0  0  0  0  0  0  0  0  0
  -10.5683   -1.6411  -22.7702 C   0  0  0  0  0  0  0  0  0  0  0  0
  -11.1306   -2.5530  -21.8803 C   0  0  0  0  0  0  0  0  0  0  0  0
  -12.4974   -2.5992  -21.7080 C   0  0  0  0  0  0  0  0  0  0  0  0
  -13.1062   -3.6903  -20.4916 Cl  0  0  0  0  0  0  0  0  0  0  0  0
  -13.3488   -1.7600  -22.4317 C   0  0  0  0  0  0  0  0  0  0  0  0
  -12.8013   -0.8153  -23.2809 C   0  0  0  0  0  0  0  0  0  0  0  0
  -11.4144   -0.7298  -23.4174 C   0  0  0  0  0  0  0  0  0  0  0  0
  -10.8514    0.4225  -24.1859 C   0  0  0  0  0  0  0  0  0  0  0  0
  -11.5580    1.3161  -24.6337 O   0  0  0  0  0  0  0  0  0  0  0  0
  -13.4301   -0.1144  -23.8269 H   0  0  0  0  0  0  0  0  0  0  0  0
  -14.4192   -1.8514  -22.2969 H   0  0  0  0  0  0  0  0  0  0  0  0
  -10.4973   -3.2214  -21.3084 H   0  0  0  0  0  0  0  0  0  0  0  0
   -7.6631   -0.5424  -24.2010 H   0  0  0  0  0  0  0  0  0  0  0  0
   -8.9426   -1.4692  -25.0209 H   0  0  0  0  0  0  0  0  0  0  0  0
   -9.6202    2.2897  -25.1023 H   0  0  0  0  0  0  0  0  0  0  0  0
   -8.2343    1.3158  -25.7155 H   0  0  0  0  0  0  0  0  0  0  0  0
   -9.3340    2.7527  -22.5504 H   0  0  0  0  0  0  0  0  0  0  0  0
   -6.8765    2.5265  -21.4168 H   0  0  0  0  0  0  0  0  0  0  0  0
   -6.7383    4.0729  -22.2465 H   0  0  0  0  0  0  0  0  0  0  0  0
   -7.9896    3.8794  -21.0065 H   0  0  0  0  0  0  0  0  0  0  0  0
  1  2  1  0
  2  3  1  0
  3  4  2  0
  3  5  1  0
  5  6  1  0
  6  7  1  0
  8  7  1  6
  8  9  1  0
  9 10  2  0
  9 11  1  0
 11 12  1  0
 12 13  2  0
 13 14  1  0
 14 15  2  0
 15 16  1  0
 16 17  2  0
 17 18  1  0
 18 19  2  0
 19 20  1  0
 20 21  2  0
 20 22  1  0
 19 23  1  0
 18 24  1  0
 17 25  1  0
 15 26  1  0
 13 27  1  0
 11 28  1  0
 28 29  1  0
 29 30  1  0
 30 31  1  0
 31 32  2  0
 31 33  2  0
 31 34  1  0
 34 35  1  0
 35 36  1  0
 35 37  1  0
 35 38  1  0
 34 39  1  0
 30 40  1  0
 30 41  1  0
 29 42  1  1
 28 43  1  0
 28 44  1  0
  8 45  1  0
 45 46  2  0
 46 47  1  0
 47 48  1  0
 47 49  2  0
 49 50  1  0
 50 51  2  0
 51 52  1  0
 52 53  2  0
 50 54  1  0
 49 55  1  0
 46 56  1  0
  7 57  1  0
  7 58  1  0
  5 59  1  0
  5 60  1  0
  2 61  1  0
  1 62  1  0
  1 63  1  0
  1 64  1  0
 52  6  1  0
 29  8  1  0
 51 45  1  0
 21 12  1  0
 21 16  1  0
M  END
>  <cnnaffinities>  (28) 
[6.25466, 6.05759]

>  <score>  (28) 
6.25466

>  <index>  (28) 
28

>  <Smiles>  (28) 
C(N(C(=O)C(N1C([C@@]2(C(=O)N(c3c(nc(c4c(c(c(c(c34)[H])[H])[H])[H])[H])[H])C([C@@]2(C(S(=O)(=O)N(C([H])([H])[H])[H])([H])[H])[H])([H])[H])c2c(c(Cl)c(c(c2C1=O)[H])[H])[H])([H])[H])([H])[H])[H])([H])([H])[H]

>  <h>  (28) 
<NA>

>  <Training>  (28) 
True

>  <Success>  (28) 
True

>  <enamine_searched>  (28) 
False

>  <enamine_id>  (28) 
nan

$$$$

     RDKit          3D

 55 60  0  0  0  0  0  0  0  0999 V2000
  -10.0470   -0.8984  -23.4660 C   0  0  0  0  0  0  0  0  0  0  0  0
   -8.6586   -1.2465  -22.9235 C   0  0  1  0  0  0  0  0  0  0  0  0
   -8.1845   -0.3142  -21.7933 C   0  0  0  0  0  0  0  0  0  0  0  0
   -7.2317   -1.1313  -21.0465 N   0  0  0  0  0  0  0  0  0  0  0  0
   -6.4010   -0.6360  -20.0084 C   0  0  0  0  0  0  0  0  0  0  0  0
   -6.6758   -0.8973  -18.6887 C   0  0  0  0  0  0  0  0  0  0  0  0
   -6.0070   -0.3442  -17.6435 N   0  0  0  0  0  0  0  0  0  0  0  0
   -5.0068    0.4597  -17.9161 C   0  0  0  0  0  0  0  0  0  0  0  0
   -4.5677    0.7548  -19.2360 C   0  0  0  0  0  0  0  0  0  0  0  0
   -3.4363    1.5780  -19.4743 C   0  0  0  0  0  0  0  0  0  0  0  0
   -3.0163    1.8131  -20.7544 C   0  0  0  0  0  0  0  0  0  0  0  0
   -3.7144    1.2496  -21.8474 C   0  0  0  0  0  0  0  0  0  0  0  0
   -4.8252    0.4679  -21.6401 C   0  0  0  0  0  0  0  0  0  0  0  0
   -5.2802    0.1992  -20.3215 C   0  0  0  0  0  0  0  0  0  0  0  0
   -5.3582    0.0375  -22.4809 H   0  0  0  0  0  0  0  0  0  0  0  0
   -3.3725    1.4432  -22.8606 H   0  0  0  0  0  0  0  0  0  0  0  0
   -2.1505    2.4428  -20.9409 H   0  0  0  0  0  0  0  0  0  0  0  0
   -2.9262    2.0208  -18.6212 H   0  0  0  0  0  0  0  0  0  0  0  0
   -4.4716    0.9042  -17.0739 H   0  0  0  0  0  0  0  0  0  0  0  0
   -7.4863   -1.5696  -18.4180 H   0  0  0  0  0  0  0  0  0  0  0  0
   -7.3698   -2.4821  -21.2902 C   0  0  0  0  0  0  0  0  0  0  0  0
   -6.7233   -3.3616  -20.7532 O   0  0  0  0  0  0  0  0  0  0  0  0
   -8.4976   -2.6831  -22.3136 C   0  0  1  0  0  0  0  0  0  0  0  0
   -9.7403   -3.1616  -21.5224 C   0  0  0  0  0  0  0  0  0  0  0  0
  -10.7996   -3.6239  -22.4092 N   0  0  0  0  0  0  0  0  0  0  0  0
  -12.1908   -3.4664  -21.9890 C   0  0  0  0  0  0  0  0  0  0  0  0
  -12.9776   -2.3650  -22.6570 C   0  0  0  0  0  0  0  0  0  0  0  0
  -13.6273   -2.2627  -23.9029 C   0  0  0  0  0  0  0  0  0  0  0  0
  -14.2928   -1.1093  -23.9617 N   0  0  0  0  0  0  0  0  0  0  0  0
  -14.0432   -0.5717  -22.7857 N   0  0  0  0  0  0  0  0  0  0  0  0
  -13.2479   -1.2508  -21.9778 N   0  0  0  0  0  0  0  0  0  0  0  0
  -14.3357    0.3671  -22.5654 H   0  0  0  0  0  0  0  0  0  0  0  0
  -13.6575   -2.9531  -24.7322 H   0  0  0  0  0  0  0  0  0  0  0  0
  -12.1755   -3.2226  -20.9279 H   0  0  0  0  0  0  0  0  0  0  0  0
  -12.6859   -4.4331  -22.1123 H   0  0  0  0  0  0  0  0  0  0  0  0
  -10.4897   -4.6037  -23.3212 C   0  0  0  0  0  0  0  0  0  0  0  0
  -11.2896   -5.3952  -23.7639 O   0  0  0  0  0  0  0  0  0  0  0  0
   -9.0836   -4.6520  -23.8039 C   0  0  0  0  0  0  0  0  0  0  0  0
   -8.7644   -5.6248  -24.7552 C   0  0  0  0  0  0  0  0  0  0  0  0
   -7.4891   -5.7025  -25.2766 C   0  0  0  0  0  0  0  0  0  0  0  0
   -6.5457   -4.7977  -24.7987 C   0  0  0  0  0  0  0  0  0  0  0  0
   -5.3034   -4.8631  -25.3034 F   0  0  0  0  0  0  0  0  0  0  0  0
   -6.8334   -3.8481  -23.8350 C   0  0  0  0  0  0  0  0  0  0  0  0
   -8.1373   -3.7458  -23.3331 C   0  0  0  0  0  0  0  0  0  0  0  0
   -6.0312   -3.2291  -23.4501 H   0  0  0  0  0  0  0  0  0  0  0  0
   -7.2229   -6.4497  -26.0191 H   0  0  0  0  0  0  0  0  0  0  0  0
   -9.5516   -6.3095  -25.0584 H   0  0  0  0  0  0  0  0  0  0  0  0
  -10.1447   -2.3551  -20.9057 H   0  0  0  0  0  0  0  0  0  0  0  0
   -9.4148   -3.9599  -20.8378 H   0  0  0  0  0  0  0  0  0  0  0  0
   -9.0334   -0.0119  -21.1582 H   0  0  0  0  0  0  0  0  0  0  0  0
   -7.7204    0.6040  -22.1668 H   0  0  0  0  0  0  0  0  0  0  0  0
   -7.9343   -1.1963  -23.7532 H   0  0  0  0  0  0  0  0  0  0  0  0
  -10.0305    0.0612  -23.9949 H   0  0  0  0  0  0  0  0  0  0  0  0
  -10.3823   -1.6674  -24.1713 H   0  0  0  0  0  0  0  0  0  0  0  0
  -10.7874   -0.8340  -22.6583 H   0  0  0  0  0  0  0  0  0  0  0  0
  1  2  1  0
  2  3  1  0
  3  4  1  0
  4  5  1  0
  5  6  2  0
  6  7  1  0
  7  8  2  0
  8  9  1  0
  9 10  2  0
 10 11  1  0
 11 12  2  0
 12 13  1  0
 13 14  2  0
 13 15  1  0
 12 16  1  0
 11 17  1  0
 10 18  1  0
  8 19  1  0
  6 20  1  0
  4 21  1  0
 21 22  2  0
 21 23  1  0
 23 24  1  1
 24 25  1  0
 25 26  1  0
 26 27  1  0
 27 28  1  0
 28 29  2  0
 29 30  1  0
 30 31  1  0
 30 32  1  0
 28 33  1  0
 26 34  1  0
 26 35  1  0
 25 36  1  0
 36 37  2  0
 36 38  1  0
 38 39  2  0
 39 40  1  0
 40 41  2  0
 41 42  1  0
 41 43  1  0
 43 44  2  0
 43 45  1  0
 40 46  1  0
 39 47  1  0
 24 48  1  0
 24 49  1  0
  3 50  1  0
  3 51  1  0
  2 52  1  6
  1 53  1  0
  1 54  1  0
  1 55  1  0
 23  2  1  0
 31 27  2  0
 44 38  1  0
 14  5  1  0
 44 23  1  0
 14  9  1  0
M  END
>  <cnnaffinities>  (29) 
[6.75051, 6.64848]

>  <score>  (29) 
6.75051

>  <index>  (29) 
29

>  <Smiles>  (29) 
C([C@]1(C(N(c2c(nc(c3c(c(c(c(c23)[H])[H])[H])[H])[H])[H])C(=O)[C@]21C(N(C(c1c(nn(n1)[H])[H])([H])[H])C(=O)c1c(c(c(F)c(c21)[H])[H])[H])([H])[H])([H])[H])[H])([H])([H])[H]

>  <h>  (29) 
<NA>

>  <Training>  (29) 
True

>  <Success>  (29) 
True

>  <enamine_searched>  (29) 
False

>  <enamine_id>  (29) 
nan

$$$$

     RDKit          3D

 58 63  0  0  0  0  0  0  0  0999 V2000
   -8.3409   -4.2120  -23.6633 C   0  0  0  0  0  0  0  0  0  0  0  0
   -8.5437   -3.1971  -22.5537 C   0  0  1  0  0  0  0  0  0  0  0  0
   -7.2203   -2.5478  -22.1383 C   0  0  0  0  0  0  0  0  0  0  0  0
   -7.6662   -1.3994  -21.3842 N   0  0  0  0  0  0  0  0  0  0  0  0
   -6.9230   -0.8628  -20.3101 C   0  0  0  0  0  0  0  0  0  0  0  0
   -7.3127   -1.0652  -19.0060 C   0  0  0  0  0  0  0  0  0  0  0  0
   -6.6209   -0.6067  -17.9331 N   0  0  0  0  0  0  0  0  0  0  0  0
   -5.5286    0.0819  -18.1668 C   0  0  0  0  0  0  0  0  0  0  0  0
   -5.0182    0.3624  -19.4673 C   0  0  0  0  0  0  0  0  0  0  0  0
   -3.8588    1.1550  -19.6790 C   0  0  0  0  0  0  0  0  0  0  0  0
   -3.4278    1.4406  -20.9440 C   0  0  0  0  0  0  0  0  0  0  0  0
   -4.1137    0.9178  -22.0616 C   0  0  0  0  0  0  0  0  0  0  0  0
   -5.2072    0.1031  -21.8824 C   0  0  0  0  0  0  0  0  0  0  0  0
   -5.7128   -0.1563  -20.5804 C   0  0  0  0  0  0  0  0  0  0  0  0
   -5.7329   -0.2810  -22.7515 H   0  0  0  0  0  0  0  0  0  0  0  0
   -3.8298    1.2163  -23.0633 H   0  0  0  0  0  0  0  0  0  0  0  0
   -2.5585    2.0747  -21.0915 H   0  0  0  0  0  0  0  0  0  0  0  0
   -3.3484    1.5509  -18.8079 H   0  0  0  0  0  0  0  0  0  0  0  0
   -4.9706    0.4575  -17.3068 H   0  0  0  0  0  0  0  0  0  0  0  0
   -8.2140   -1.6364  -18.7843 H   0  0  0  0  0  0  0  0  0  0  0  0
   -8.9765   -1.0641  -21.6508 C   0  0  0  0  0  0  0  0  0  0  0  0
   -9.5945   -0.1906  -21.0784 O   0  0  0  0  0  0  0  0  0  0  0  0
   -9.5198   -2.0142  -22.7573 C   0  0  1  0  0  0  0  0  0  0  0  0
   -9.4089   -1.3713  -24.1616 C   0  0  0  0  0  0  0  0  0  0  0  0
  -10.3433   -0.2803  -24.3734 N   0  0  0  0  0  0  0  0  0  0  0  0
   -9.8878    0.8030  -25.2303 C   0  0  0  0  0  0  0  0  0  0  0  0
   -8.8537    1.6431  -24.4892 C   0  0  0  0  0  0  0  0  0  0  0  0
   -7.6756    2.0329  -25.0617 C   0  0  0  0  0  0  0  0  0  0  0  0
   -6.5567    2.4387  -24.2287 C   0  0  0  0  0  0  0  0  0  0  0  0
   -5.4231    2.6937  -24.5938 O   0  0  0  0  0  0  0  0  0  0  0  0
   -6.9118    2.4902  -22.8645 N   0  0  0  0  0  0  0  0  0  0  0  0
   -8.1666    2.2128  -22.4048 C   0  0  0  0  0  0  0  0  0  0  0  0
   -9.1500    1.8766  -23.1748 N   0  0  0  0  0  0  0  0  0  0  0  0
   -8.3090    2.2284  -21.3273 H   0  0  0  0  0  0  0  0  0  0  0  0
   -6.1481    2.6207  -22.2094 H   0  0  0  0  0  0  0  0  0  0  0  0
   -7.5300    1.9970  -26.1315 H   0  0  0  0  0  0  0  0  0  0  0  0
  -10.7668    1.3952  -25.4934 H   0  0  0  0  0  0  0  0  0  0  0  0
   -9.4450    0.3941  -26.1507 H   0  0  0  0  0  0  0  0  0  0  0  0
  -11.5240   -0.1296  -23.7036 C   0  0  0  0  0  0  0  0  0  0  0  0
  -12.2728    0.8201  -23.9080 O   0  0  0  0  0  0  0  0  0  0  0  0
  -11.8635   -1.2107  -22.7349 C   0  0  0  0  0  0  0  0  0  0  0  0
  -13.0992   -1.1316  -22.1021 C   0  0  0  0  0  0  0  0  0  0  0  0
  -13.4893   -2.1304  -21.2436 C   0  0  0  0  0  0  0  0  0  0  0  0
  -12.6775   -3.2523  -21.1196 C   0  0  0  0  0  0  0  0  0  0  0  0
  -13.1150   -4.2482  -20.3334 F   0  0  0  0  0  0  0  0  0  0  0  0
  -11.4407   -3.3509  -21.7231 C   0  0  0  0  0  0  0  0  0  0  0  0
  -10.9754   -2.2582  -22.4616 C   0  0  0  0  0  0  0  0  0  0  0  0
  -10.8469   -4.2411  -21.5560 H   0  0  0  0  0  0  0  0  0  0  0  0
  -14.4111   -2.0924  -20.6746 H   0  0  0  0  0  0  0  0  0  0  0  0
  -13.7207   -0.2630  -22.2852 H   0  0  0  0  0  0  0  0  0  0  0  0
   -9.5806   -2.1343  -24.9327 H   0  0  0  0  0  0  0  0  0  0  0  0
   -8.3980   -0.9714  -24.2965 H   0  0  0  0  0  0  0  0  0  0  0  0
   -6.5978   -3.2154  -21.5322 H   0  0  0  0  0  0  0  0  0  0  0  0
   -6.6283   -2.2587  -23.0209 H   0  0  0  0  0  0  0  0  0  0  0  0
   -8.9086   -3.7055  -21.6574 H   0  0  0  0  0  0  0  0  0  0  0  0
   -9.2658   -4.7434  -23.9115 H   0  0  0  0  0  0  0  0  0  0  0  0
   -7.9630   -3.7226  -24.5685 H   0  0  0  0  0  0  0  0  0  0  0  0
   -7.5856   -4.9448  -23.3496 H   0  0  0  0  0  0  0  0  0  0  0  0
  1  2  1  0
  2  3  1  0
  3  4  1  0
  4  5  1  0
  5  6  2  0
  6  7  1  0
  7  8  2  0
  8  9  1  0
  9 10  2  0
 10 11  1  0
 11 12  2  0
 12 13  1  0
 13 14  2  0
 13 15  1  0
 12 16  1  0
 11 17  1  0
 10 18  1  0
  8 19  1  0
  6 20  1  0
  4 21  1  0
 21 22  2  0
 21 23  1  0
 23 24  1  6
 24 25  1  0
 25 26  1  0
 26 27  1  0
 27 28  2  0
 28 29  1  0
 29 30  2  0
 29 31  1  0
 31 32  1  0
 32 33  2  0
 32 34  1  0
 31 35  1  0
 28 36  1  0
 26 37  1  0
 26 38  1  0
 25 39  1  0
 39 40  2  0
 39 41  1  0
 41 42  2  0
 42 43  1  0
 43 44  2  0
 44 45  1  0
 44 46  1  0
 46 47  2  0
 46 48  1  0
 43 49  1  0
 42 50  1  0
 24 51  1  0
 24 52  1  0
  3 53  1  0
  3 54  1  0
  2 55  1  1
  1 56  1  0
  1 57  1  0
  1 58  1  0
 23  2  1  0
 33 27  1  0
 47 41  1  0
 14  5  1  0
 47 23  1  0
 14  9  1  0
M  END
>  <cnnaffinities>  (30) 
[6.51182, 6.28153, 6.0523]

>  <score>  (30) 
6.51182

>  <index>  (30) 
30

>  <Smiles>  (30) 
C([C@]1(C(N(c2c(nc(c3c(c(c(c(c23)[H])[H])[H])[H])[H])[H])C(=O)[C@]21C(N(C(c1c(c(=O)n(c(n1)[H])[H])[H])([H])[H])C(=O)c1c(c(c(F)c(c21)[H])[H])[H])([H])[H])([H])[H])[H])([H])([H])[H]

>  <h>  (30) 
<NA>

>  <Training>  (30) 
True

>  <Success>  (30) 
True

>  <enamine_searched>  (30) 
False

>  <enamine_id>  (30) 
nan

$$$$

     RDKit          3D

 66 71  0  0  0  0  0  0  0  0999 V2000
   -7.3709    3.3863  -21.9095 C   0  0  0  0  0  0  0  0  0  0  0  0
   -8.3155    2.8965  -22.8991 N   0  0  0  0  0  0  0  0  0  0  0  0
   -7.8067    2.1689  -23.9342 C   0  0  0  0  0  0  0  0  0  0  0  0
   -6.6042    1.9835  -24.0673 O   0  0  0  0  0  0  0  0  0  0  0  0
   -8.8124    1.5765  -24.9198 C   0  0  0  0  0  0  0  0  0  0  0  0
   -9.4555    0.4146  -24.3354 N   0  0  0  0  0  0  0  0  0  0  0  0
   -8.6769   -0.8067  -24.1811 C   0  0  0  0  0  0  0  0  0  0  0  0
   -9.0359   -1.5402  -22.8664 C   0  0  2  0  0  0  0  0  0  0  0  0
   -8.5251   -0.7563  -21.6401 C   0  0  0  0  0  0  0  0  0  0  0  0
   -9.0188    0.2301  -21.1233 O   0  0  0  0  0  0  0  0  0  0  0  0
   -7.3815   -1.3754  -21.1958 N   0  0  0  0  0  0  0  0  0  0  0  0
   -6.6022   -0.8061  -20.1681 C   0  0  0  0  0  0  0  0  0  0  0  0
   -6.9346   -1.0275  -18.8562 C   0  0  0  0  0  0  0  0  0  0  0  0
   -6.2406   -0.5376  -17.8019 N   0  0  0  0  0  0  0  0  0  0  0  0
   -5.1918    0.2052  -18.0711 C   0  0  0  0  0  0  0  0  0  0  0  0
   -4.7474    0.5213  -19.3878 C   0  0  0  0  0  0  0  0  0  0  0  0
   -3.6206    1.3493  -19.6297 C   0  0  0  0  0  0  0  0  0  0  0  0
   -3.2388    1.6494  -20.9084 C   0  0  0  0  0  0  0  0  0  0  0  0
   -3.9679    1.1472  -22.0099 C   0  0  0  0  0  0  0  0  0  0  0  0
   -5.0647    0.3447  -21.8042 C   0  0  0  0  0  0  0  0  0  0  0  0
   -5.4741    0.0063  -20.4838 C   0  0  0  0  0  0  0  0  0  0  0  0
   -5.6384   -0.0013  -22.6589 H   0  0  0  0  0  0  0  0  0  0  0  0
   -3.6707    1.4054  -23.0204 H   0  0  0  0  0  0  0  0  0  0  0  0
   -2.3767    2.2845  -21.0840 H   0  0  0  0  0  0  0  0  0  0  0  0
   -3.0872    1.7500  -18.7730 H   0  0  0  0  0  0  0  0  0  0  0  0
   -4.6317    0.6008  -17.2246 H   0  0  0  0  0  0  0  0  0  0  0  0
   -7.8044   -1.6374  -18.6249 H   0  0  0  0  0  0  0  0  0  0  0  0
   -6.9985   -2.5557  -21.9428 C   0  0  0  0  0  0  0  0  0  0  0  0
   -8.2867   -2.8892  -22.7004 C   0  0  2  0  0  0  0  0  0  0  0  0
   -8.1048   -3.7301  -23.9649 C   0  0  0  0  0  0  0  0  0  0  0  0
   -7.6641   -5.0752  -23.6839 N   0  0  0  0  0  0  0  0  0  0  0  0
   -6.3615   -5.4121  -23.4994 C   0  0  0  0  0  0  0  0  0  0  0  0
   -5.2884   -4.7167  -24.0953 C   0  0  0  0  0  0  0  0  0  0  0  0
   -4.0415   -5.2975  -23.9842 C   0  0  0  0  0  0  0  0  0  0  0  0
   -3.8068   -6.3849  -23.2446 N   0  0  0  0  0  0  0  0  0  0  0  0
   -4.8751   -6.8766  -22.6290 C   0  0  0  0  0  0  0  0  0  0  0  0
   -6.1422   -6.4883  -22.7318 N   0  0  0  0  0  0  0  0  0  0  0  0
   -4.6901   -7.6995  -21.9475 H   0  0  0  0  0  0  0  0  0  0  0  0
   -3.1829   -4.8654  -24.5128 H   0  0  0  0  0  0  0  0  0  0  0  0
   -5.4275   -3.7701  -24.6093 H   0  0  0  0  0  0  0  0  0  0  0  0
   -8.3178   -5.7317  -23.2717 H   0  0  0  0  0  0  0  0  0  0  0  0
   -7.3785   -3.2500  -24.6264 H   0  0  0  0  0  0  0  0  0  0  0  0
   -9.0467   -3.7750  -24.5203 H   0  0  0  0  0  0  0  0  0  0  0  0
   -8.8777   -3.4920  -22.0087 H   0  0  0  0  0  0  0  0  0  0  0  0
   -6.1511   -2.3661  -22.6213 H   0  0  0  0  0  0  0  0  0  0  0  0
   -6.7008   -3.3518  -21.2557 H   0  0  0  0  0  0  0  0  0  0  0  0
  -10.5346   -1.6472  -22.7756 C   0  0  0  0  0  0  0  0  0  0  0  0
  -11.0953   -2.5629  -21.8860 C   0  0  0  0  0  0  0  0  0  0  0  0
  -12.4588   -2.6098  -21.7130 C   0  0  0  0  0  0  0  0  0  0  0  0
  -13.0623   -3.6955  -20.4974 Cl  0  0  0  0  0  0  0  0  0  0  0  0
  -13.3154   -1.7797  -22.4344 C   0  0  0  0  0  0  0  0  0  0  0  0
  -12.7650   -0.8467  -23.2918 C   0  0  0  0  0  0  0  0  0  0  0  0
  -11.3804   -0.7450  -23.4294 C   0  0  0  0  0  0  0  0  0  0  0  0
  -10.8209    0.4034  -24.2157 C   0  0  0  0  0  0  0  0  0  0  0  0
  -11.5296    1.2835  -24.6854 O   0  0  0  0  0  0  0  0  0  0  0  0
  -13.3873   -0.1546  -23.8465 H   0  0  0  0  0  0  0  0  0  0  0  0
  -14.3854   -1.8505  -22.2841 H   0  0  0  0  0  0  0  0  0  0  0  0
  -10.4910   -3.2374  -21.2907 H   0  0  0  0  0  0  0  0  0  0  0  0
   -7.6127   -0.5476  -24.2033 H   0  0  0  0  0  0  0  0  0  0  0  0
   -8.8728   -1.4759  -25.0309 H   0  0  0  0  0  0  0  0  0  0  0  0
   -9.6012    2.2844  -25.1944 H   0  0  0  0  0  0  0  0  0  0  0  0
   -8.2713    1.2915  -25.8300 H   0  0  0  0  0  0  0  0  0  0  0  0
   -9.2550    2.6911  -22.5808 H   0  0  0  0  0  0  0  0  0  0  0  0
   -6.8178    2.5461  -21.4608 H   0  0  0  0  0  0  0  0  0  0  0  0
   -7.9021    3.9617  -21.1483 H   0  0  0  0  0  0  0  0  0  0  0  0
   -6.6569    4.0622  -22.3872 H   0  0  0  0  0  0  0  0  0  0  0  0
  1  2  1  0
  2  3  1  0
  3  4  2  0
  3  5  1  0
  5  6  1  0
  6  7  1  0
  8  7  1  6
  8  9  1  0
  9 10  2  0
  9 11  1  0
 11 12  1  0
 12 13  2  0
 13 14  1  0
 14 15  2  0
 15 16  1  0
 16 17  2  0
 17 18  1  0
 18 19  2  0
 19 20  1  0
 20 21  2  0
 20 22  1  0
 19 23  1  0
 18 24  1  0
 17 25  1  0
 15 26  1  0
 13 27  1  0
 11 28  1  0
 28 29  1  0
 29 30  1  0
 30 31  1  0
 31 32  1  0
 32 33  2  0
 33 34  1  0
 34 35  2  0
 35 36  1  0
 36 37  2  0
 36 38  1  0
 34 39  1  0
 33 40  1  0
 31 41  1  0
 30 42  1  0
 30 43  1  0
 29 44  1  1
 28 45  1  0
 28 46  1  0
  8 47  1  0
 47 48  2  0
 48 49  1  0
 49 50  1  0
 49 51  2  0
 51 52  1  0
 52 53  2  0
 53 54  1  0
 54 55  2  0
 52 56  1  0
 51 57  1  0
 48 58  1  0
  7 59  1  0
  7 60  1  0
  5 61  1  0
  5 62  1  0
  2 63  1  0
  1 64  1  0
  1 65  1  0
  1 66  1  0
 54  6  1  0
 29  8  1  0
 37 32  1  0
 53 47  1  0
 21 12  1  0
 21 16  1  0
M  END
>  <cnnaffinities>  (31) 
[6.54643, 6.65361, 6.07962]

>  <score>  (31) 
6.54643

>  <index>  (31) 
31

>  <Smiles>  (31) 
C(N(C(=O)C(N1C([C@@]2(C(=O)N(c3c(nc(c4c(c(c(c(c34)[H])[H])[H])[H])[H])[H])C([C@@]2(C(N(c2c(c(nc(n2)[H])[H])[H])[H])([H])[H])[H])([H])[H])c2c(c(Cl)c(c(c2C1=O)[H])[H])[H])([H])[H])([H])[H])[H])([H])([H])[H]

>  <h>  (31) 
<NA>

>  <Training>  (31) 
True

>  <Success>  (31) 
True

>  <enamine_searched>  (31) 
False

>  <enamine_id>  (31) 
nan

$$$$

     RDKit          3D

 57 62  0  0  0  0  0  0  0  0999 V2000
  -10.0073   -0.8178  -23.5358 C   0  0  0  0  0  0  0  0  0  0  0  0
   -8.6766   -1.2459  -22.9304 C   0  0  1  0  0  0  0  0  0  0  0  0
   -8.2047   -0.3318  -21.7944 C   0  0  0  0  0  0  0  0  0  0  0  0
   -7.2366   -1.1615  -21.0963 N   0  0  0  0  0  0  0  0  0  0  0  0
   -6.4268   -0.6641  -20.0514 C   0  0  0  0  0  0  0  0  0  0  0  0
   -6.7539   -0.9054  -18.7407 C   0  0  0  0  0  0  0  0  0  0  0  0
   -6.0983   -0.3677  -17.6820 N   0  0  0  0  0  0  0  0  0  0  0  0
   -5.0679    0.4050  -17.9359 C   0  0  0  0  0  0  0  0  0  0  0  0
   -4.6036    0.7088  -19.2471 C   0  0  0  0  0  0  0  0  0  0  0  0
   -3.4706    1.5366  -19.4646 C   0  0  0  0  0  0  0  0  0  0  0  0
   -3.0493    1.8111  -20.7358 C   0  0  0  0  0  0  0  0  0  0  0  0
   -3.7371    1.2696  -21.8450 C   0  0  0  0  0  0  0  0  0  0  0  0
   -4.8375    0.4644  -21.6609 C   0  0  0  0  0  0  0  0  0  0  0  0
   -5.2987    0.1669  -20.3491 C   0  0  0  0  0  0  0  0  0  0  0  0
   -5.3562    0.0479  -22.5179 H   0  0  0  0  0  0  0  0  0  0  0  0
   -3.3987    1.4968  -22.8513 H   0  0  0  0  0  0  0  0  0  0  0  0
   -2.1894    2.4559  -20.9031 H   0  0  0  0  0  0  0  0  0  0  0  0
   -2.9623    1.9533  -18.5995 H   0  0  0  0  0  0  0  0  0  0  0  0
   -4.5373    0.8305  -17.0829 H   0  0  0  0  0  0  0  0  0  0  0  0
   -7.5970   -1.5466  -18.4911 H   0  0  0  0  0  0  0  0  0  0  0  0
   -7.5296   -2.5045  -21.2195 C   0  0  0  0  0  0  0  0  0  0  0  0
   -7.0448   -3.3853  -20.5371 O   0  0  0  0  0  0  0  0  0  0  0  0
   -8.5661   -2.6957  -22.3404 C   0  0  1  0  0  0  0  0  0  0  0  0
   -9.8501   -3.2285  -21.6504 C   0  0  0  0  0  0  0  0  0  0  0  0
  -10.8079   -3.8326  -22.5809 N   0  0  0  0  0  0  0  0  0  0  0  0
  -12.2132   -3.8748  -22.1747 C   0  0  0  0  0  0  0  0  0  0  0  0
  -12.9768   -2.6317  -22.5262 C   0  0  0  0  0  0  0  0  0  0  0  0
  -12.9429   -1.4957  -21.8639 N   0  0  0  0  0  0  0  0  0  0  0  0
  -13.7811   -0.6510  -22.5013 N   0  0  0  0  0  0  0  0  0  0  0  0
  -14.3216   -1.2250  -23.5156 N   0  0  0  0  0  0  0  0  0  0  0  0
  -13.8344   -2.4803  -23.5574 N   0  0  0  0  0  0  0  0  0  0  0  0
  -14.3378   -3.3978  -24.5606 C   0  0  0  0  0  0  0  0  0  0  0  0
  -14.0090   -4.4123  -24.3133 H   0  0  0  0  0  0  0  0  0  0  0  0
  -15.4298   -3.3702  -24.5901 H   0  0  0  0  0  0  0  0  0  0  0  0
  -13.9713   -3.0757  -25.5357 H   0  0  0  0  0  0  0  0  0  0  0  0
  -12.2786   -4.0085  -21.0851 H   0  0  0  0  0  0  0  0  0  0  0  0
  -12.6803   -4.7342  -22.6646 H   0  0  0  0  0  0  0  0  0  0  0  0
  -10.3801   -4.7221  -23.5381 C   0  0  0  0  0  0  0  0  0  0  0  0
  -11.0929   -5.5534  -24.0754 O   0  0  0  0  0  0  0  0  0  0  0  0
   -8.9543   -4.6334  -23.9365 C   0  0  0  0  0  0  0  0  0  0  0  0
   -8.5440   -5.5418  -24.9091 C   0  0  0  0  0  0  0  0  0  0  0  0
   -7.2314   -5.5911  -25.3214 C   0  0  0  0  0  0  0  0  0  0  0  0
   -6.3596   -4.6594  -24.7701 C   0  0  0  0  0  0  0  0  0  0  0  0
   -5.0732   -4.7033  -25.1541 F   0  0  0  0  0  0  0  0  0  0  0  0
   -6.7596   -3.7083  -23.8428 C   0  0  0  0  0  0  0  0  0  0  0  0
   -8.0834   -3.7070  -23.3733 C   0  0  0  0  0  0  0  0  0  0  0  0
   -6.0330   -2.9842  -23.4923 H   0  0  0  0  0  0  0  0  0  0  0  0
   -6.8913   -6.3278  -26.0427 H   0  0  0  0  0  0  0  0  0  0  0  0
   -9.3073   -6.1950  -25.3144 H   0  0  0  0  0  0  0  0  0  0  0  0
  -10.3820   -2.4253  -21.1267 H   0  0  0  0  0  0  0  0  0  0  0  0
   -9.5248   -3.9568  -20.8904 H   0  0  0  0  0  0  0  0  0  0  0  0
   -9.0412   -0.0491  -21.1322 H   0  0  0  0  0  0  0  0  0  0  0  0
   -7.7431    0.5919  -22.1541 H   0  0  0  0  0  0  0  0  0  0  0  0
   -7.9184   -1.2023  -23.7216 H   0  0  0  0  0  0  0  0  0  0  0  0
  -10.7982   -0.8312  -22.7823 H   0  0  0  0  0  0  0  0  0  0  0  0
   -9.9350    0.2058  -23.9282 H   0  0  0  0  0  0  0  0  0  0  0  0
  -10.3026   -1.4791  -24.3564 H   0  0  0  0  0  0  0  0  0  0  0  0
  1  2  1  0
  2  3  1  0
  3  4  1  0
  4  5  1  0
  5  6  2  0
  6  7  1  0
  7  8  2  0
  8  9  1  0
  9 10  2  0
 10 11  1  0
 11 12  2  0
 12 13  1  0
 13 14  2  0
 13 15  1  0
 12 16  1  0
 11 17  1  0
 10 18  1  0
  8 19  1  0
  6 20  1  0
  4 21  1  0
 21 22  2  0
 21 23  1  0
 23 24  1  1
 24 25  1  0
 25 26  1  0
 26 27  1  0
 27 28  2  0
 28 29  1  0
 29 30  2  0
 30 31  1  0
 31 32  1  0
 32 33  1  0
 32 34  1  0
 32 35  1  0
 26 36  1  0
 26 37  1  0
 25 38  1  0
 38 39  2  0
 38 40  1  0
 40 41  2  0
 41 42  1  0
 42 43  2  0
 43 44  1  0
 43 45  1  0
 45 46  2  0
 45 47  1  0
 42 48  1  0
 41 49  1  0
 24 50  1  0
 24 51  1  0
  3 52  1  0
  3 53  1  0
  2 54  1  6
  1 55  1  0
  1 56  1  0
  1 57  1  0
 23  2  1  0
 31 27  1  0
 46 40  1  0
 14  5  1  0
 46 23  1  0
 14  9  1  0
M  END
>  <cnnaffinities>  (32) 
[6.71081]

>  <score>  (32) 
6.71081

>  <index>  (32) 
32

>  <Smiles>  (32) 
C([C@]1(C(N(c2c(nc(c3c(c(c(c(c23)[H])[H])[H])[H])[H])[H])C(=O)[C@]21C(N(C(c1nnnn1C([H])([H])[H])([H])[H])C(=O)c1c(c(c(F)c(c21)[H])[H])[H])([H])[H])([H])[H])[H])([H])([H])[H]

>  <h>  (32) 
<NA>

>  <Training>  (32) 
True

>  <Success>  (32) 
True

>  <enamine_searched>  (32) 
False

>  <enamine_id>  (32) 
nan

$$$$

     RDKit          3D

 66 70  0  0  0  0  0  0  0  0999 V2000
   -7.4569    3.3140  -21.9077 C   0  0  0  0  0  0  0  0  0  0  0  0
   -8.4733    2.8185  -22.8257 N   0  0  0  0  0  0  0  0  0  0  0  0
   -8.0151    2.0930  -23.8880 C   0  0  0  0  0  0  0  0  0  0  0  0
   -6.8241    1.8958  -24.0745 O   0  0  0  0  0  0  0  0  0  0  0  0
   -9.0429    1.5018  -24.8408 C   0  0  0  0  0  0  0  0  0  0  0  0
   -9.5925    0.2896  -24.2665 N   0  0  0  0  0  0  0  0  0  0  0  0
   -8.7600   -0.8997  -24.1310 C   0  0  0  0  0  0  0  0  0  0  0  0
   -9.0629   -1.6769  -22.8177 C   0  0  2  0  0  0  0  0  0  0  0  0
   -8.5553   -0.8843  -21.5926 C   0  0  0  0  0  0  0  0  0  0  0  0
   -9.0864    0.0723  -21.0604 O   0  0  0  0  0  0  0  0  0  0  0  0
   -7.3603   -1.4358  -21.1877 N   0  0  0  0  0  0  0  0  0  0  0  0
   -6.5913   -0.8337  -20.1643 C   0  0  0  0  0  0  0  0  0  0  0  0
   -6.9276   -1.0363  -18.8501 C   0  0  0  0  0  0  0  0  0  0  0  0
   -6.2377   -0.5348  -17.7972 N   0  0  0  0  0  0  0  0  0  0  0  0
   -5.1901    0.2074  -18.0715 C   0  0  0  0  0  0  0  0  0  0  0  0
   -4.7458    0.5174  -19.3892 C   0  0  0  0  0  0  0  0  0  0  0  0
   -3.6227    1.3519  -19.6297 C   0  0  0  0  0  0  0  0  0  0  0  0
   -3.2407    1.6486  -20.9091 C   0  0  0  0  0  0  0  0  0  0  0  0
   -3.9667    1.1384  -22.0069 C   0  0  0  0  0  0  0  0  0  0  0  0
   -5.0613    0.3319  -21.8038 C   0  0  0  0  0  0  0  0  0  0  0  0
   -5.4692   -0.0099  -20.4838 C   0  0  0  0  0  0  0  0  0  0  0  0
   -5.6368   -0.0095  -22.6591 H   0  0  0  0  0  0  0  0  0  0  0  0
   -3.6605    1.3914  -23.0171 H   0  0  0  0  0  0  0  0  0  0  0  0
   -2.3841    2.2918  -21.0851 H   0  0  0  0  0  0  0  0  0  0  0  0
   -3.0940    1.7579  -18.7717 H   0  0  0  0  0  0  0  0  0  0  0  0
   -4.6348    0.6129  -17.2260 H   0  0  0  0  0  0  0  0  0  0  0  0
   -7.7952   -1.6479  -18.6153 H   0  0  0  0  0  0  0  0  0  0  0  0
   -6.9353   -2.5933  -21.9524 C   0  0  0  0  0  0  0  0  0  0  0  0
   -8.2147   -2.9827  -22.7161 C   0  0  2  0  0  0  0  0  0  0  0  0
   -7.9300   -3.6805  -24.0410 C   0  0  0  0  0  0  0  0  0  0  0  0
   -7.2184   -4.8755  -23.8040 O   0  0  0  0  0  0  0  0  0  0  0  0
   -7.0451   -5.6944  -24.9557 C   0  0  0  0  0  0  0  0  0  0  0  0
   -5.6711   -6.3476  -24.8671 C   0  0  0  0  0  0  0  0  0  0  0  0
   -5.4906   -6.9638  -25.7586 H   0  0  0  0  0  0  0  0  0  0  0  0
   -4.8851   -5.5872  -24.8005 H   0  0  0  0  0  0  0  0  0  0  0  0
   -5.6202   -6.9874  -23.9777 H   0  0  0  0  0  0  0  0  0  0  0  0
   -8.1511   -6.7447  -25.0378 C   0  0  0  0  0  0  0  0  0  0  0  0
   -8.1243   -7.3873  -24.1497 H   0  0  0  0  0  0  0  0  0  0  0  0
   -9.1455   -6.2854  -25.1008 H   0  0  0  0  0  0  0  0  0  0  0  0
   -8.0060   -7.3703  -25.9279 H   0  0  0  0  0  0  0  0  0  0  0  0
   -7.0813   -5.0667  -25.8623 H   0  0  0  0  0  0  0  0  0  0  0  0
   -8.8806   -3.8850  -24.5585 H   0  0  0  0  0  0  0  0  0  0  0  0
   -7.3254   -3.0288  -24.6942 H   0  0  0  0  0  0  0  0  0  0  0  0
   -8.7557   -3.6994  -22.0923 H   0  0  0  0  0  0  0  0  0  0  0  0
   -6.1057   -2.3478  -22.6344 H   0  0  0  0  0  0  0  0  0  0  0  0
   -6.5920   -3.3923  -21.2874 H   0  0  0  0  0  0  0  0  0  0  0  0
  -10.5633   -1.8569  -22.7256 C   0  0  0  0  0  0  0  0  0  0  0  0
  -11.1122   -2.8090  -21.8625 C   0  0  0  0  0  0  0  0  0  0  0  0
  -12.4758   -2.8345  -21.6392 C   0  0  0  0  0  0  0  0  0  0  0  0
  -13.0855   -3.9263  -20.4333 Cl  0  0  0  0  0  0  0  0  0  0  0  0
  -13.3461   -1.9795  -22.3190 C   0  0  0  0  0  0  0  0  0  0  0  0
  -12.8166   -1.0713  -23.2049 C   0  0  0  0  0  0  0  0  0  0  0  0
  -11.4393   -0.9681  -23.3621 C   0  0  0  0  0  0  0  0  0  0  0  0
  -10.9470    0.2113  -24.1318 C   0  0  0  0  0  0  0  0  0  0  0  0
  -11.7110    1.0641  -24.5678 O   0  0  0  0  0  0  0  0  0  0  0  0
  -13.4466   -0.3826  -23.7578 H   0  0  0  0  0  0  0  0  0  0  0  0
  -14.4137   -1.9751  -22.1362 H   0  0  0  0  0  0  0  0  0  0  0  0
  -10.4928   -3.5199  -21.3274 H   0  0  0  0  0  0  0  0  0  0  0  0
   -8.9435   -1.5756  -24.9804 H   0  0  0  0  0  0  0  0  0  0  0  0
   -7.7071   -0.5986  -24.1616 H   0  0  0  0  0  0  0  0  0  0  0  0
   -8.5672    1.2781  -25.8018 H   0  0  0  0  0  0  0  0  0  0  0  0
   -9.8885    2.1657  -25.0316 H   0  0  0  0  0  0  0  0  0  0  0  0
   -9.3977    2.6275  -22.4485 H   0  0  0  0  0  0  0  0  0  0  0  0
   -6.7197    3.8870  -22.4804 H   0  0  0  0  0  0  0  0  0  0  0  0
   -7.9004    3.9963  -21.1733 H   0  0  0  0  0  0  0  0  0  0  0  0
   -6.9453    2.4595  -21.4293 H   0  0  0  0  0  0  0  0  0  0  0  0
  1  2  1  0
  2  3  1  0
  3  4  2  0
  3  5  1  0
  5  6  1  0
  6  7  1  0
  8  7  1  6
  8  9  1  0
  9 10  2  0
  9 11  1  0
 11 12  1  0
 12 13  2  0
 13 14  1  0
 14 15  2  0
 15 16  1  0
 16 17  2  0
 17 18  1  0
 18 19  2  0
 19 20  1  0
 20 21  2  0
 20 22  1  0
 19 23  1  0
 18 24  1  0
 17 25  1  0
 15 26  1  0
 13 27  1  0
 11 28  1  0
 28 29  1  0
 29 30  1  0
 30 31  1  0
 31 32  1  0
 32 33  1  0
 33 34  1  0
 33 35  1  0
 33 36  1  0
 32 37  1  0
 37 38  1  0
 37 39  1  0
 37 40  1  0
 32 41  1  0
 30 42  1  0
 30 43  1  0
 29 44  1  1
 28 45  1  0
 28 46  1  0
  8 47  1  0
 47 48  2  0
 48 49  1  0
 49 50  1  0
 49 51  2  0
 51 52  1  0
 52 53  2  0
 53 54  1  0
 54 55  2  0
 52 56  1  0
 51 57  1  0
 48 58  1  0
  7 59  1  0
  7 60  1  0
  5 61  1  0
  5 62  1  0
  2 63  1  0
  1 64  1  0
  1 65  1  0
  1 66  1  0
 54  6  1  0
 29  8  1  0
 53 47  1  0
 21 12  1  0
 21 16  1  0
M  END
>  <cnnaffinities>  (33) 
[6.48074]

>  <score>  (33) 
6.48074

>  <index>  (33) 
34

>  <Smiles>  (33) 
C(N(C(=O)C(N1C([C@@]2(C(=O)N(c3c(nc(c4c(c(c(c(c34)[H])[H])[H])[H])[H])[H])C([C@@]2(C(OC(C([H])([H])[H])(C([H])([H])[H])[H])([H])[H])[H])([H])[H])c2c(c(Cl)c(c(c2C1=O)[H])[H])[H])([H])[H])([H])[H])[H])([H])([H])[H]

>  <h>  (33) 
<NA>

>  <Training>  (33) 
True

>  <Success>  (33) 
True

>  <enamine_searched>  (33) 
False

>  <enamine_id>  (33) 
nan

$$$$

     RDKit          3D

 40 42  0  0  0  0  0  0  0  0999 V2000
   -9.1646   -1.8818  -22.7077 O   0  0  0  0  0  0  0  0  0  0  0  0
   -8.3056   -1.0794  -22.3535 C   0  0  0  0  0  0  0  0  0  0  0  0
   -6.9866   -1.6028  -21.7824 C   0  0  0  0  0  0  0  0  0  0  0  0
   -6.4105   -0.8500  -20.5986 C   0  0  0  0  0  0  0  0  0  0  0  0
   -7.0052   -0.9631  -19.3632 C   0  0  0  0  0  0  0  0  0  0  0  0
   -6.5273   -0.4371  -18.2071 N   0  0  0  0  0  0  0  0  0  0  0  0
   -5.4239    0.2661  -18.2913 C   0  0  0  0  0  0  0  0  0  0  0  0
   -4.7279    0.5180  -19.5040 C   0  0  0  0  0  0  0  0  0  0  0  0
   -3.5944    1.3678  -19.5534 C   0  0  0  0  0  0  0  0  0  0  0  0
   -2.9900    1.6568  -20.7458 C   0  0  0  0  0  0  0  0  0  0  0  0
   -3.4655    1.0717  -21.9395 C   0  0  0  0  0  0  0  0  0  0  0  0
   -4.5373    0.2099  -21.9112 C   0  0  0  0  0  0  0  0  0  0  0  0
   -5.2194   -0.0670  -20.6958 C   0  0  0  0  0  0  0  0  0  0  0  0
   -4.8780   -0.2318  -22.8444 H   0  0  0  0  0  0  0  0  0  0  0  0
   -2.9827    1.3117  -22.8820 H   0  0  0  0  0  0  0  0  0  0  0  0
   -2.1479    2.3420  -20.7839 H   0  0  0  0  0  0  0  0  0  0  0  0
   -3.2403    1.8035  -18.6225 H   0  0  0  0  0  0  0  0  0  0  0  0
   -5.0311    0.6904  -17.3658 H   0  0  0  0  0  0  0  0  0  0  0  0
   -7.9342   -1.5256  -19.2607 H   0  0  0  0  0  0  0  0  0  0  0  0
   -7.2043   -2.6319  -21.4806 H   0  0  0  0  0  0  0  0  0  0  0  0
   -6.2600   -1.6715  -22.5951 H   0  0  0  0  0  0  0  0  0  0  0  0
   -8.4145    0.2993  -22.4178 N   0  0  0  0  0  0  0  0  0  0  0  0
   -9.5936    1.0836  -21.9837 C   0  0  0  0  0  0  0  0  0  0  0  0
   -9.6159    0.9250  -21.8013 C   0  0  0  0  0  0  0  0  0  0  0  0
   -9.2799    2.8865  -23.6621 C   0  0  0  0  0  0  0  0  0  0  0  0
   -8.4662    5.4268  -22.8486 C   0  0  0  0  0  0  0  0  0  0  0  0
   -7.6017    5.7734  -23.7841 F   0  0  0  0  0  0  0  0  0  0  0  0
   -9.2591    6.4296  -22.5474 F   0  0  0  0  0  0  0  0  0  0  0  0
   -7.8444    4.9843  -21.7753 F   0  0  0  0  0  0  0  0  0  0  0  0
   -8.0189    2.4712  -23.6891 C   0  0  0  0  0  0  0  0  0  0  0  0
   -7.4576    1.1726  -23.1676 C   0  0  0  0  0  0  0  0  0  0  0  0
   -7.0344    0.5998  -23.9951 H   0  0  0  0  0  0  0  0  0  0  0  0
   -6.6354    1.4396  -22.4942 H   0  0  0  0  0  0  0  0  0  0  0  0
  -10.0925    2.1862  -23.6602 H   0  0  0  0  0  0  0  0  0  0  0  0
   -7.2457    3.1342  -24.0804 H   0  0  0  0  0  0  0  0  0  0  0  0
   -9.4852    3.9604  -23.6812 H   0  0  0  0  0  0  0  0  0  0  0  0
  -10.4937    1.8611  -21.7294 H   0  0  0  0  0  0  0  0  0  0  0  0
   -8.8735    1.9092  -21.4480 H   0  0  0  0  0  0  0  0  0  0  0  0
   -9.9171    0.0672  -20.5120 H   0  0  0  0  0  0  0  0  0  0  0  0
  -10.3560    0.5810  -22.7878 H   0  0  0  0  0  0  0  0  0  0  0  0
  1  2  2  0
  2  3  1  0
  3  4  1  0
  4  5  2  0
  5  6  1  0
  6  7  2  0
  7  8  1  0
  8  9  2  0
  9 10  1  0
 10 11  2  0
 11 12  1  0
 12 13  2  0
 12 14  1  0
 11 15  1  0
 10 16  1  0
  9 17  1  0
  7 18  1  0
  5 19  1  0
  3 20  1  0
  3 21  1  0
  2 22  1  0
 22 23  1  0
 23 24  1  0
 24 25  1  0
 25 26  1  0
 26 27  1  0
 26 28  1  0
 26 29  1  0
 25 30  1  0
 30 31  1  0
 31 32  1  0
 31 33  1  0
 30 34  1  0
 30 35  1  0
 25 36  1  0
 24 37  1  0
 24 38  1  0
 23 39  1  0
 23 40  1  0
 13  4  1  0
 31 22  1  0
 13  8  1  0
M  END
>  <cnnaffinities>  (34) 
[4.78138, 4.72488]

>  <score>  (34) 
4.78138

>  <index>  (34) 
35

>  <Smiles>  (34) 
O=C(C(c1c(nc(c2c(c(c(c(c12)[H])[H])[H])[H])[H])[H])([H])[H])N1C(C(C(C(F)(F)F)(C(C1([H])[H])([H])[H])[H])([H])[H])([H])[H]

>  <h>  (34) 
<NA>

>  <Training>  (34) 
True

>  <Success>  (34) 
True

>  <enamine_searched>  (34) 
False

>  <enamine_id>  (34) 
nan

$$$$

     RDKit          3D

 47 50  0  0  0  0  0  0  0  0999 V2000
   -8.6679    0.6232  -21.3323 O   0  0  0  0  0  0  0  0  0  0  0  0
   -8.4214   -0.4135  -21.9239 C   0  0  0  0  0  0  0  0  0  0  0  0
   -7.4271   -1.4240  -21.2921 C   0  0  0  0  0  0  0  0  0  0  0  0
   -6.5847   -0.8238  -20.1865 C   0  0  0  0  0  0  0  0  0  0  0  0
   -6.8820   -1.0356  -18.8643 C   0  0  0  0  0  0  0  0  0  0  0  0
   -6.1971   -0.5325  -17.7982 N   0  0  0  0  0  0  0  0  0  0  0  0
   -5.1590    0.2225  -18.0670 C   0  0  0  0  0  0  0  0  0  0  0  0
   -4.7237    0.5331  -19.3838 C   0  0  0  0  0  0  0  0  0  0  0  0
   -3.5971    1.3596  -19.6240 C   0  0  0  0  0  0  0  0  0  0  0  0
   -3.2068    1.6524  -20.9005 C   0  0  0  0  0  0  0  0  0  0  0  0
   -3.9340    1.1220  -21.9930 C   0  0  0  0  0  0  0  0  0  0  0  0
   -5.0297    0.3184  -21.7967 C   0  0  0  0  0  0  0  0  0  0  0  0
   -5.4560    0.0021  -20.4794 C   0  0  0  0  0  0  0  0  0  0  0  0
   -5.5735   -0.0719  -22.6599 H   0  0  0  0  0  0  0  0  0  0  0  0
   -3.6199    1.3648  -23.0021 H   0  0  0  0  0  0  0  0  0  0  0  0
   -2.3506    2.2970  -21.0878 H   0  0  0  0  0  0  0  0  0  0  0  0
   -3.0625    1.7735  -18.7708 H   0  0  0  0  0  0  0  0  0  0  0  0
   -4.6037    0.6262  -17.2162 H   0  0  0  0  0  0  0  0  0  0  0  0
   -7.7288   -1.6587  -18.5845 H   0  0  0  0  0  0  0  0  0  0  0  0
   -6.7839   -1.8981  -22.0433 H   0  0  0  0  0  0  0  0  0  0  0  0
   -8.0339   -2.2305  -20.8590 H   0  0  0  0  0  0  0  0  0  0  0  0
   -9.0737   -0.7318  -23.1056 N   0  0  0  0  0  0  0  0  0  0  0  0
  -10.0881    0.2412  -23.5331 C   0  0  0  0  0  0  0  0  0  0  0  0
  -11.0603   -0.3100  -24.5662 C   0  0  0  0  0  0  0  0  0  0  0  0
  -10.3393   -0.9985  -25.7108 C   0  0  0  0  0  0  0  0  0  0  0  0
   -9.5341   -2.1487  -25.1290 C   0  0  0  0  0  0  0  0  0  0  0  0
   -8.5283   -1.7183  -24.0444 C   0  0  1  0  0  0  0  0  0  0  0  0
   -7.1909   -1.3003  -24.6584 C   0  0  0  0  0  0  0  0  0  0  0  0
   -6.9718   -0.0175  -25.1569 C   0  0  0  0  0  0  0  0  0  0  0  0
   -5.7515    0.3346  -25.7261 C   0  0  0  0  0  0  0  0  0  0  0  0
   -4.7253   -0.5986  -25.8266 C   0  0  0  0  0  0  0  0  0  0  0  0
   -4.9523   -1.8948  -25.3777 C   0  0  0  0  0  0  0  0  0  0  0  0
   -6.1662   -2.2413  -24.7922 C   0  0  0  0  0  0  0  0  0  0  0  0
   -6.3091   -3.2617  -24.4400 H   0  0  0  0  0  0  0  0  0  0  0  0
   -4.1857   -2.6451  -25.5128 H   0  0  0  0  0  0  0  0  0  0  0  0
   -3.7649   -0.3235  -26.2554 H   0  0  0  0  0  0  0  0  0  0  0  0
   -5.6044    1.3444  -26.0932 H   0  0  0  0  0  0  0  0  0  0  0  0
   -7.7600    0.7252  -25.1062 H   0  0  0  0  0  0  0  0  0  0  0  0
   -8.3256   -2.6133  -23.4511 H   0  0  0  0  0  0  0  0  0  0  0  0
  -10.2264   -2.8777  -24.6984 H   0  0  0  0  0  0  0  0  0  0  0  0
   -8.9893   -2.6773  -25.9158 H   0  0  0  0  0  0  0  0  0  0  0  0
   -9.6749   -0.2953  -26.2263 H   0  0  0  0  0  0  0  0  0  0  0  0
  -11.0495   -1.3652  -26.4623 H   0  0  0  0  0  0  0  0  0  0  0  0
  -11.6934    0.5025  -24.9345 H   0  0  0  0  0  0  0  0  0  0  0  0
  -11.7326   -1.0251  -24.0854 H   0  0  0  0  0  0  0  0  0  0  0  0
  -10.6246    0.5485  -22.6358 H   0  0  0  0  0  0  0  0  0  0  0  0
   -9.6296    1.1626  -23.9211 H   0  0  0  0  0  0  0  0  0  0  0  0
  1  2  2  0
  2  3  1  0
  3  4  1  0
  4  5  2  0
  5  6  1  0
  6  7  2  0
  7  8  1  0
  8  9  2  0
  9 10  1  0
 10 11  2  0
 11 12  1  0
 12 13  2  0
 12 14  1  0
 11 15  1  0
 10 16  1  0
  9 17  1  0
  7 18  1  0
  5 19  1  0
  3 20  1  0
  3 21  1  0
  2 22  1  0
 22 23  1  0
 23 24  1  0
 24 25  1  0
 25 26  1  0
 26 27  1  0
 27 28  1  0
 28 29  2  0
 29 30  1  0
 30 31  2  0
 31 32  1  0
 32 33  2  0
 33 34  1  0
 32 35  1  0
 31 36  1  0
 30 37  1  0
 29 38  1  0
 27 39  1  1
 26 40  1  0
 26 41  1  0
 25 42  1  0
 25 43  1  0
 24 44  1  0
 24 45  1  0
 23 46  1  0
 23 47  1  0
 13  4  1  0
 27 22  1  0
 33 28  1  0
 13  8  1  0
M  END
>  <cnnaffinities>  (35) 
[5.04767, 5.04699, 5.23033, 5.23039, 5.41072, 5.40042]

>  <score>  (35) 
5.04767

>  <index>  (35) 
36

>  <Smiles>  (35) 
O=C(C(c1c(nc(c2c(c(c(c(c12)[H])[H])[H])[H])[H])[H])([H])[H])N1C(C(C(C([C@]1(c1c(c(c(c(c1[H])[H])[H])[H])[H])[H])([H])[H])([H])[H])([H])[H])([H])[H]

>  <h>  (35) 
<NA>

>  <Training>  (35) 
True

>  <Success>  (35) 
True

>  <enamine_searched>  (35) 
False

>  <enamine_id>  (35) 
nan

$$$$

     RDKit          3D

 56 60  0  0  0  0  0  0  0  0999 V2000
   -7.3117    3.4480  -21.8878 C   0  0  0  0  0  0  0  0  0  0  0  0
   -8.1416    2.9707  -22.9784 N   0  0  0  0  0  0  0  0  0  0  0  0
   -7.5697    2.2577  -23.9769 C   0  0  0  0  0  0  0  0  0  0  0  0
   -6.3562    2.1230  -24.0758 O   0  0  0  0  0  0  0  0  0  0  0  0
   -8.5204    1.6371  -25.0071 C   0  0  0  0  0  0  0  0  0  0  0  0
   -9.2673    0.5001  -24.4986 N   0  0  0  0  0  0  0  0  0  0  0  0
   -8.5693   -0.7581  -24.3036 C   0  0  0  0  0  0  0  0  0  0  0  0
   -8.9877   -1.4547  -22.9836 C   0  0  2  0  0  0  0  0  0  0  0  0
   -8.4387   -0.6658  -21.7655 C   0  0  0  0  0  0  0  0  0  0  0  0
   -8.8275    0.4051  -21.3463 O   0  0  0  0  0  0  0  0  0  0  0  0
   -7.4050   -1.3771  -21.2020 N   0  0  0  0  0  0  0  0  0  0  0  0
   -6.6038   -0.8073  -20.1734 C   0  0  0  0  0  0  0  0  0  0  0  0
   -6.9091   -1.0406  -18.8587 C   0  0  0  0  0  0  0  0  0  0  0  0
   -6.2087   -0.5449  -17.8068 N   0  0  0  0  0  0  0  0  0  0  0  0
   -5.1704    0.2108  -18.0766 C   0  0  0  0  0  0  0  0  0  0  0  0
   -4.7317    0.5309  -19.3927 C   0  0  0  0  0  0  0  0  0  0  0  0
   -3.6023    1.3610  -19.6395 C   0  0  0  0  0  0  0  0  0  0  0  0
   -3.2117    1.6462  -20.9189 C   0  0  0  0  0  0  0  0  0  0  0  0
   -3.9318    1.1153  -22.0136 C   0  0  0  0  0  0  0  0  0  0  0  0
   -5.0276    0.3130  -21.8012 C   0  0  0  0  0  0  0  0  0  0  0  0
   -5.4661    0.0041  -20.4845 C   0  0  0  0  0  0  0  0  0  0  0  0
   -5.5807   -0.0791  -22.6504 H   0  0  0  0  0  0  0  0  0  0  0  0
   -3.6378    1.3599  -23.0285 H   0  0  0  0  0  0  0  0  0  0  0  0
   -2.3586    2.2951  -21.0980 H   0  0  0  0  0  0  0  0  0  0  0  0
   -3.0753    1.7759  -18.7831 H   0  0  0  0  0  0  0  0  0  0  0  0
   -4.6190    0.6150  -17.2260 H   0  0  0  0  0  0  0  0  0  0  0  0
   -7.7606   -1.6665  -18.6027 H   0  0  0  0  0  0  0  0  0  0  0  0
   -7.0857   -2.6138  -21.8853 C   0  0  0  0  0  0  0  0  0  0  0  0
   -8.2909   -2.8519  -22.8232 C   0  0  2  0  0  0  0  0  0  0  0  0
   -7.8849   -3.5912  -24.1046 C   0  0  0  0  0  0  0  0  0  0  0  0
   -7.1138   -3.0408  -24.6566 H   0  0  0  0  0  0  0  0  0  0  0  0
   -7.4699   -4.5765  -23.8651 H   0  0  0  0  0  0  0  0  0  0  0  0
   -8.7348   -3.7453  -24.7781 H   0  0  0  0  0  0  0  0  0  0  0  0
   -9.0059   -3.4836  -22.2900 H   0  0  0  0  0  0  0  0  0  0  0  0
   -6.1480   -2.5206  -22.4558 H   0  0  0  0  0  0  0  0  0  0  0  0
   -6.9485   -3.4287  -21.1628 H   0  0  0  0  0  0  0  0  0  0  0  0
  -10.5095   -1.4606  -22.9125 C   0  0  0  0  0  0  0  0  0  0  0  0
  -11.1695   -2.3006  -22.0095 C   0  0  0  0  0  0  0  0  0  0  0  0
  -12.5506   -2.3076  -21.9152 C   0  0  0  0  0  0  0  0  0  0  0  0
  -13.3128   -1.4449  -22.7073 C   0  0  0  0  0  0  0  0  0  0  0  0
  -12.6778   -0.5544  -23.5525 C   0  0  0  0  0  0  0  0  0  0  0  0
  -11.2836   -0.5383  -23.6321 C   0  0  0  0  0  0  0  0  0  0  0  0
  -10.6364    0.5562  -24.4328 C   0  0  0  0  0  0  0  0  0  0  0  0
  -11.2902    1.4504  -24.9543 O   0  0  0  0  0  0  0  0  0  0  0  0
  -13.2232    0.1686  -24.1505 H   0  0  0  0  0  0  0  0  0  0  0  0
  -14.3959   -1.4583  -22.6351 H   0  0  0  0  0  0  0  0  0  0  0  0
  -13.0399   -2.9786  -21.2143 H   0  0  0  0  0  0  0  0  0  0  0  0
  -10.6014   -2.9488  -21.3482 H   0  0  0  0  0  0  0  0  0  0  0  0
   -8.7694   -1.4425  -25.1445 H   0  0  0  0  0  0  0  0  0  0  0  0
   -7.4982   -0.5340  -24.2754 H   0  0  0  0  0  0  0  0  0  0  0  0
   -7.8850    1.3418  -25.8509 H   0  0  0  0  0  0  0  0  0  0  0  0
   -9.2744    2.3492  -25.3521 H   0  0  0  0  0  0  0  0  0  0  0  0
   -9.1409    2.9246  -22.8525 H   0  0  0  0  0  0  0  0  0  0  0  0
   -6.7530    2.6147  -21.4334 H   0  0  0  0  0  0  0  0  0  0  0  0
   -6.5854    4.1850  -22.2475 H   0  0  0  0  0  0  0  0  0  0  0  0
   -7.9641    3.9255  -21.1545 H   0  0  0  0  0  0  0  0  0  0  0  0
  1  2  1  0
  2  3  1  0
  3  4  2  0
  3  5  1  0
  5  6  1  0
  6  7  1  0
  8  7  1  6
  8  9  1  0
  9 10  2  0
  9 11  1  0
 11 12  1  0
 12 13  2  0
 13 14  1  0
 14 15  2  0
 15 16  1  0
 16 17  2  0
 17 18  1  0
 18 19  2  0
 19 20  1  0
 20 21  2  0
 20 22  1  0
 19 23  1  0
 18 24  1  0
 17 25  1  0
 15 26  1  0
 13 27  1  0
 11 28  1  0
 28 29  1  0
 29 30  1  0
 30 31  1  0
 30 32  1  0
 30 33  1  0
 29 34  1  1
 28 35  1  0
 28 36  1  0
  8 37  1  0
 37 38  2  0
 38 39  1  0
 39 40  2  0
 40 41  1  0
 41 42  2  0
 42 43  1  0
 43 44  2  0
 41 45  1  0
 40 46  1  0
 39 47  1  0
 38 48  1  0
  7 49  1  0
  7 50  1  0
  5 51  1  0
  5 52  1  0
  2 53  1  0
  1 54  1  0
  1 55  1  0
  1 56  1  0
 43  6  1  0
 29  8  1  0
 42 37  1  0
 21 12  1  0
 21 16  1  0
M  END
>  <cnnaffinities>  (36) 
[6.03329, 5.77531, 5.74624]

>  <score>  (36) 
6.03329

>  <index>  (36) 
37

>  <Smiles>  (36) 
C(N(C(=O)C(N1C([C@@]2(C(=O)N(c3c(nc(c4c(c(c(c(c34)[H])[H])[H])[H])[H])[H])C([C@@]2(C([H])([H])[H])[H])([H])[H])c2c(c(c(c(c2C1=O)[H])[H])[H])[H])([H])[H])([H])[H])[H])([H])([H])[H]

>  <h>  (36) 
<NA>

>  <Training>  (36) 
True

>  <Success>  (36) 
True

>  <enamine_searched>  (36) 
False

>  <enamine_id>  (36) 
nan

$$$$

     RDKit          3D

 46 48  0  0  0  0  0  0  0  0999 V2000
   -8.1587   -4.6948  -26.5426 C   0  0  0  0  0  0  0  0  0  0  0  0
   -8.6545   -4.9600  -25.1189 C   0  0  1  0  0  0  0  0  0  0  0  0
   -7.5917   -5.5266  -24.1814 C   0  0  0  0  0  0  0  0  0  0  0  0
   -6.6180   -4.5212  -23.5543 C   0  0  1  0  0  0  0  0  0  0  0  0
   -5.4188   -4.1643  -24.4427 C   0  0  0  0  0  0  0  0  0  0  0  0
   -4.6267   -3.7522  -23.8169 H   0  0  0  0  0  0  0  0  0  0  0  0
   -5.6638   -3.4313  -25.2147 H   0  0  0  0  0  0  0  0  0  0  0  0
   -5.0172   -5.0574  -24.9388 H   0  0  0  0  0  0  0  0  0  0  0  0
   -7.3225   -3.3368  -23.0152 N   0  0  0  0  0  0  0  0  0  0  0  0
   -6.7236   -2.7036  -21.9372 C   0  0  0  0  0  0  0  0  0  0  0  0
   -5.6751   -3.1144  -21.4663 O   0  0  0  0  0  0  0  0  0  0  0  0
   -7.4080   -1.4706  -21.2807 C   0  0  0  0  0  0  0  0  0  0  0  0
   -6.5777   -0.8350  -20.1849 C   0  0  0  0  0  0  0  0  0  0  0  0
   -6.8731   -1.0472  -18.8636 C   0  0  0  0  0  0  0  0  0  0  0  0
   -6.1930   -0.5395  -17.7979 N   0  0  0  0  0  0  0  0  0  0  0  0
   -5.1595    0.2223  -18.0654 C   0  0  0  0  0  0  0  0  0  0  0  0
   -4.7212    0.5285  -19.3812 C   0  0  0  0  0  0  0  0  0  0  0  0
   -3.5927    1.3549  -19.6236 C   0  0  0  0  0  0  0  0  0  0  0  0
   -3.1919    1.6329  -20.9022 C   0  0  0  0  0  0  0  0  0  0  0  0
   -3.9042    1.0910  -21.9949 C   0  0  0  0  0  0  0  0  0  0  0  0
   -5.0000    0.2890  -21.7873 C   0  0  0  0  0  0  0  0  0  0  0  0
   -5.4447   -0.0143  -20.4738 C   0  0  0  0  0  0  0  0  0  0  0  0
   -5.5361   -0.1229  -22.6371 H   0  0  0  0  0  0  0  0  0  0  0  0
   -3.5812    1.3186  -23.0062 H   0  0  0  0  0  0  0  0  0  0  0  0
   -2.3314    2.2725  -21.0865 H   0  0  0  0  0  0  0  0  0  0  0  0
   -3.0597    1.7733  -18.7720 H   0  0  0  0  0  0  0  0  0  0  0  0
   -4.6036    0.6283  -17.2165 H   0  0  0  0  0  0  0  0  0  0  0  0
   -7.7211   -1.6713  -18.5868 H   0  0  0  0  0  0  0  0  0  0  0  0
   -7.6722   -0.7137  -22.0315 H   0  0  0  0  0  0  0  0  0  0  0  0
   -8.3603   -1.8077  -20.8477 H   0  0  0  0  0  0  0  0  0  0  0  0
   -8.4089   -2.7194  -23.7927 C   0  0  1  0  0  0  0  0  0  0  0  0
   -7.9394   -1.6592  -24.8005 C   0  0  0  0  0  0  0  0  0  0  0  0
   -7.4436   -2.0882  -25.6754 H   0  0  0  0  0  0  0  0  0  0  0  0
   -8.7986   -1.0847  -25.1699 H   0  0  0  0  0  0  0  0  0  0  0  0
   -7.2439   -0.9497  -24.3425 H   0  0  0  0  0  0  0  0  0  0  0  0
   -9.3281   -3.7770  -24.4236 C   0  0  0  0  0  0  0  0  0  0  0  0
   -9.9795   -4.1697  -23.6354 H   0  0  0  0  0  0  0  0  0  0  0  0
   -9.9890   -3.2698  -25.1328 H   0  0  0  0  0  0  0  0  0  0  0  0
   -9.0328   -2.1954  -23.0626 H   0  0  0  0  0  0  0  0  0  0  0  0
   -6.1943   -5.0189  -22.6801 H   0  0  0  0  0  0  0  0  0  0  0  0
   -8.0938   -6.0562  -23.3649 H   0  0  0  0  0  0  0  0  0  0  0  0
   -7.0115   -6.2885  -24.7137 H   0  0  0  0  0  0  0  0  0  0  0  0
   -9.4280   -5.7357  -25.2233 H   0  0  0  0  0  0  0  0  0  0  0  0
   -7.9241   -5.6405  -27.0465 H   0  0  0  0  0  0  0  0  0  0  0  0
   -8.9310   -4.1941  -27.1379 H   0  0  0  0  0  0  0  0  0  0  0  0
   -7.2554   -4.0808  -26.5813 H   0  0  0  0  0  0  0  0  0  0  0  0
  1  2  1  0
  2  3  1  0
  3  4  1  0
  4  5  1  0
  5  6  1  0
  5  7  1  0
  5  8  1  0
  4  9  1  0
  9 10  1  0
 10 11  2  0
 10 12  1  0
 12 13  1  0
 13 14  2  0
 14 15  1  0
 15 16  2  0
 16 17  1  0
 17 18  2  0
 18 19  1  0
 19 20  2  0
 20 21  1  0
 21 22  2  0
 21 23  1  0
 20 24  1  0
 19 25  1  0
 18 26  1  0
 16 27  1  0
 14 28  1  0
 12 29  1  0
 12 30  1  0
  9 31  1  0
 31 32  1  0
 32 33  1  0
 32 34  1  0
 32 35  1  0
 31 36  1  0
 36 37  1  0
 36 38  1  0
 31 39  1  1
  4 40  1  1
  3 41  1  0
  3 42  1  0
  2 43  1  6
  1 44  1  0
  1 45  1  0
  1 46  1  0
 36  2  1  0
 22 13  1  0
 22 17  1  0
M  END
>  <cnnaffinities>  (37) 
[5.09945]

>  <score>  (37) 
5.09945

>  <index>  (37) 
38

>  <Smiles>  (37) 
C([C@]1(C([C@@](C([H])([H])[H])(N(C(=O)C(c2c(nc(c3c(c(c(c(c23)[H])[H])[H])[H])[H])[H])([H])[H])[C@@](C([H])([H])[H])(C1([H])[H])[H])[H])([H])[H])[H])([H])([H])[H]

>  <h>  (37) 
<NA>

>  <Training>  (37) 
True

>  <Success>  (37) 
True

>  <enamine_searched>  (37) 
False

>  <enamine_id>  (37) 
nan

$$$$

     RDKit          3D

 40 44  0  0  0  0  0  0  0  0999 V2000
   -7.2371    0.9287  -25.5979 C   0  0  0  0  0  0  0  0  0  0  0  0
   -6.5088   -0.3939  -25.4031 C   0  0  0  0  0  0  0  0  0  0  0  0
   -5.2961   -0.5078  -25.5271 O   0  0  0  0  0  0  0  0  0  0  0  0
   -7.2718   -1.4760  -25.0838 N   0  0  0  0  0  0  0  0  0  0  0  0
   -6.6397   -2.7682  -24.7372 C   0  0  0  0  0  0  0  0  0  0  0  0
   -7.8119   -3.4867  -24.0458 C   0  0  2  0  0  0  0  0  0  0  0  0
   -9.0038   -2.9607  -24.8628 C   0  0  0  0  0  0  0  0  0  0  0  0
   -8.6610   -1.4876  -24.5568 C   0  0  1  0  0  0  0  0  0  0  0  0
   -8.5616   -1.5551  -23.0880 C   0  0  0  0  0  0  0  0  0  0  0  0
   -8.1608   -0.6117  -22.0868 C   0  0  0  0  0  0  0  0  0  0  0  0
   -8.3359    0.5809  -21.9965 O   0  0  0  0  0  1  0  0  0  0  0  0
   -7.4001   -1.3902  -21.1812 N   0  0  0  0  0  0  0  0  0  0  0  0
   -6.5819   -0.8249  -20.1700 C   0  0  0  0  0  0  0  0  0  0  0  0
   -6.8937   -1.0561  -18.8566 C   0  0  0  0  0  0  0  0  0  0  0  0
   -6.2040   -0.5412  -17.8095 N   0  0  0  0  0  0  0  0  0  0  0  0
   -5.1707    0.2164  -18.0814 C   0  0  0  0  0  0  0  0  0  0  0  0
   -4.7274    0.5258  -19.3983 C   0  0  0  0  0  0  0  0  0  0  0  0
   -3.5930    1.3492  -19.6337 C   0  0  0  0  0  0  0  0  0  0  0  0
   -3.1825    1.6205  -20.9091 C   0  0  0  0  0  0  0  0  0  0  0  0
   -3.8830    1.0692  -22.0081 C   0  0  0  0  0  0  0  0  0  0  0  0
   -4.9781    0.2668  -21.8065 C   0  0  0  0  0  0  0  0  0  0  0  0
   -5.4456   -0.0122  -20.4897 C   0  0  0  0  0  0  0  0  0  0  0  0
   -5.4932   -0.1522  -22.6689 H   0  0  0  0  0  0  0  0  0  0  0  0
   -3.5624    1.2925  -23.0218 H   0  0  0  0  0  0  0  0  0  0  0  0
   -2.3259    2.2666  -21.0866 H   0  0  0  0  0  0  0  0  0  0  0  0
   -3.0769    1.7678  -18.7738 H   0  0  0  0  0  0  0  0  0  0  0  0
   -4.6260    0.6208  -17.2276 H   0  0  0  0  0  0  0  0  0  0  0  0
   -7.7428   -1.6833  -18.6011 H   0  0  0  0  0  0  0  0  0  0  0  0
   -7.2540   -2.7102  -21.6301 C   0  0  0  0  0  0  0  0  0  0  0  0
   -6.5343   -3.5551  -21.1573 O   0  0  0  0  0  0  0  0  0  0  0  0
   -8.0616   -2.7883  -22.7617 N   0  0  0  0  0  0  0  0  0  0  0  0
   -9.2829   -0.6938  -24.9792 H   0  0  0  0  0  0  0  0  0  0  0  0
   -9.9657   -3.2772  -24.4623 H   0  0  0  0  0  0  0  0  0  0  0  0
   -8.9264   -3.1982  -25.9281 H   0  0  0  0  0  0  0  0  0  0  0  0
   -7.7029   -4.5544  -23.9041 H   0  0  0  0  0  0  0  0  0  0  0  0
   -5.7903   -2.6315  -24.0590 H   0  0  0  0  0  0  0  0  0  0  0  0
   -6.2966   -3.2696  -25.6441 H   0  0  0  0  0  0  0  0  0  0  0  0
   -6.4874    1.6600  -25.9038 H   0  0  0  0  0  0  0  0  0  0  0  0
   -7.7243    1.2565  -24.6715 H   0  0  0  0  0  0  0  0  0  0  0  0
   -8.0170    0.8639  -26.3666 H   0  0  0  0  0  0  0  0  0  0  0  0
  1  2  1  0
  2  3  2  0
  2  4  1  0
  4  5  1  0
  5  6  1  0
  6  7  1  0
  7  8  1  0
  8  9  1  0
  9 10  2  0
 10 11  1  0
 10 12  1  0
 12 13  1  0
 13 14  2  0
 14 15  1  0
 15 16  2  0
 16 17  1  0
 17 18  2  0
 18 19  1  0
 19 20  2  0
 20 21  1  0
 21 22  2  0
 21 23  1  0
 20 24  1  0
 19 25  1  0
 18 26  1  0
 16 27  1  0
 14 28  1  0
 12 29  1  0
 29 30  2  0
 29 31  1  0
  8 32  1  1
  7 33  1  0
  7 34  1  0
  6 35  1  1
  5 36  1  0
  5 37  1  0
  1 38  1  0
  1 39  1  0
  1 40  1  0
  8  4  1  0
 31  9  1  0
 31  6  1  0
 22 13  1  0
 22 17  1  0
M  CHG  1  11  -1
M  END
>  <cnnaffinities>  (38) 
[5.38631]

>  <score>  (38) 
5.38631

>  <index>  (38) 
39

>  <Smiles>  (38) 
C(C(=O)N1C([C@@]2(C([C@]1(c1c([O-])n(c3c(nc(c4c(c(c(c(c34)[H])[H])[H])[H])[H])[H])c(=O)n21)[H])([H])[H])[H])([H])[H])([H])([H])[H]

>  <h>  (38) 
<NA>

>  <Training>  (38) 
True

>  <Success>  (38) 
True

>  <enamine_searched>  (38) 
False

>  <enamine_id>  (38) 
nan

$$$$

     RDKit          3D

 40 42  0  0  0  0  0  0  0  0999 V2000
   -9.2963   -6.6217  -25.1370 C   0  0  0  0  0  0  0  0  0  0  0  0
   -8.9663   -5.7829  -23.9042 C   0  0  0  0  0  0  0  0  0  0  0  0
   -7.5200   -5.9541  -23.4564 C   0  0  0  0  0  0  0  0  0  0  0  0
   -7.2965   -5.1125  -22.2106 C   0  0  0  0  0  0  0  0  0  0  0  0
   -7.5870   -3.7028  -22.4178 N   0  0  0  0  0  0  0  0  0  0  0  0
   -6.7724   -2.7865  -21.7884 C   0  0  0  0  0  0  0  0  0  0  0  0
   -5.5808   -3.0043  -21.6271 O   0  0  0  0  0  0  0  0  0  0  0  0
   -7.4089   -1.4830  -21.2638 C   0  0  0  0  0  0  0  0  0  0  0  0
   -6.5820   -0.8285  -20.1808 C   0  0  0  0  0  0  0  0  0  0  0  0
   -6.8808   -1.0452  -18.8603 C   0  0  0  0  0  0  0  0  0  0  0  0
   -6.1976   -0.5373  -17.7983 N   0  0  0  0  0  0  0  0  0  0  0  0
   -5.1624    0.2185  -18.0702 C   0  0  0  0  0  0  0  0  0  0  0  0
   -4.7213    0.5246  -19.3844 C   0  0  0  0  0  0  0  0  0  0  0  0
   -3.5944    1.3504  -19.6224 C   0  0  0  0  0  0  0  0  0  0  0  0
   -3.1917    1.6259  -20.9006 C   0  0  0  0  0  0  0  0  0  0  0  0
   -3.9012    1.0820  -21.9946 C   0  0  0  0  0  0  0  0  0  0  0  0
   -4.9951    0.2790  -21.7905 C   0  0  0  0  0  0  0  0  0  0  0  0
   -5.4440   -0.0176  -20.4758 C   0  0  0  0  0  0  0  0  0  0  0  0
   -5.5251   -0.1480  -22.6366 H   0  0  0  0  0  0  0  0  0  0  0  0
   -3.5790    1.3140  -23.0063 H   0  0  0  0  0  0  0  0  0  0  0  0
   -2.3346    2.2694  -21.0767 H   0  0  0  0  0  0  0  0  0  0  0  0
   -3.0770    1.7686  -18.7617 H   0  0  0  0  0  0  0  0  0  0  0  0
   -4.6137    0.6281  -17.2185 H   0  0  0  0  0  0  0  0  0  0  0  0
   -7.7290   -1.6702  -18.5821 H   0  0  0  0  0  0  0  0  0  0  0  0
   -7.5643   -0.8000  -22.1100 H   0  0  0  0  0  0  0  0  0  0  0  0
   -8.4075   -1.7097  -20.8641 H   0  0  0  0  0  0  0  0  0  0  0  0
   -8.9624   -3.4746  -22.8241 C   0  0  0  0  0  0  0  0  0  0  0  0
   -9.2666   -4.2943  -24.0853 C   0  0  0  0  0  0  0  0  0  0  0  0
  -10.3268   -4.1673  -24.3274 H   0  0  0  0  0  0  0  0  0  0  0  0
   -8.6623   -3.9117  -24.9203 H   0  0  0  0  0  0  0  0  0  0  0  0
   -9.1006   -2.4077  -23.0173 H   0  0  0  0  0  0  0  0  0  0  0  0
   -9.6715   -3.7722  -22.0225 H   0  0  0  0  0  0  0  0  0  0  0  0
   -8.0043   -5.4755  -21.4429 H   0  0  0  0  0  0  0  0  0  0  0  0
   -6.2740   -5.1747  -21.8450 H   0  0  0  0  0  0  0  0  0  0  0  0
   -6.8268   -5.6907  -24.2712 H   0  0  0  0  0  0  0  0  0  0  0  0
   -7.3455   -7.0063  -23.1940 H   0  0  0  0  0  0  0  0  0  0  0  0
   -9.5806   -6.1164  -23.0674 H   0  0  0  0  0  0  0  0  0  0  0  0
   -9.1165   -7.6873  -24.9529 H   0  0  0  0  0  0  0  0  0  0  0  0
  -10.3450   -6.5056  -25.4308 H   0  0  0  0  0  0  0  0  0  0  0  0
   -8.6698   -6.3200  -25.9851 H   0  0  0  0  0  0  0  0  0  0  0  0
  1  2  1  0
  2  3  1  0
  3  4  1  0
  4  5  1  0
  5  6  1  0
  6  7  2  0
  6  8  1  0
  8  9  1  0
  9 10  2  0
 10 11  1  0
 11 12  2  0
 12 13  1  0
 13 14  2  0
 14 15  1  0
 15 16  2  0
 16 17  1  0
 17 18  2  0
 17 19  1  0
 16 20  1  0
 15 21  1  0
 14 22  1  0
 12 23  1  0
 10 24  1  0
  8 25  1  0
  8 26  1  0
  5 27  1  0
 27 28  1  0
 28 29  1  0
 28 30  1  0
 27 31  1  0
 27 32  1  0
  4 33  1  0
  4 34  1  0
  3 35  1  0
  3 36  1  0
  2 37  1  0
  1 38  1  0
  1 39  1  0
  1 40  1  0
 28  2  1  0
 18  9  1  0
 18 13  1  0
M  END
>  <cnnaffinities>  (39) 
[4.25028, 4.25016, 4.65869]

>  <score>  (39) 
4.25028

>  <index>  (39) 
40

>  <Smiles>  (39) 
C(C1(C(C(N(C(=O)C(c2c(nc(c3c(c(c(c(c23)[H])[H])[H])[H])[H])[H])([H])[H])C(C1([H])[H])([H])[H])([H])[H])([H])[H])[H])([H])([H])[H]

>  <h>  (39) 
<NA>

>  <Training>  (39) 
True

>  <Success>  (39) 
True

>  <enamine_searched>  (39) 
False

>  <enamine_id>  (39) 
nan

$$$$

     RDKit          3D

 67 71  0  0  0  0  0  0  0  0999 V2000
   -7.3698    3.4548  -21.8940 C   0  0  0  0  0  0  0  0  0  0  0  0
   -8.3354    2.9548  -22.8585 N   0  0  0  0  0  0  0  0  0  0  0  0
   -7.8576    2.2250  -23.9022 C   0  0  0  0  0  0  0  0  0  0  0  0
   -6.6626    2.0151  -24.0472 O   0  0  0  0  0  0  0  0  0  0  0  0
   -8.8813    1.6464  -24.8780 C   0  0  0  0  0  0  0  0  0  0  0  0
   -9.5094    0.4784  -24.2909 N   0  0  0  0  0  0  0  0  0  0  0  0
   -8.7221   -0.7422  -24.1641 C   0  0  0  0  0  0  0  0  0  0  0  0
   -9.0655   -1.5055  -22.8637 C   0  0  2  0  0  0  0  0  0  0  0  0
   -8.5316   -0.7494  -21.6310 C   0  0  0  0  0  0  0  0  0  0  0  0
   -9.0012    0.2396  -21.1012 O   0  0  0  0  0  0  0  0  0  0  0  0
   -7.3937   -1.3873  -21.1943 N   0  0  0  0  0  0  0  0  0  0  0  0
   -6.6027   -0.8196  -20.1700 C   0  0  0  0  0  0  0  0  0  0  0  0
   -6.9359   -1.0365  -18.8587 C   0  0  0  0  0  0  0  0  0  0  0  0
   -6.2414   -0.5440  -17.8051 N   0  0  0  0  0  0  0  0  0  0  0  0
   -5.1947    0.1994  -18.0768 C   0  0  0  0  0  0  0  0  0  0  0  0
   -4.7533    0.5172  -19.3919 C   0  0  0  0  0  0  0  0  0  0  0  0
   -3.6298    1.3501  -19.6328 C   0  0  0  0  0  0  0  0  0  0  0  0
   -3.2489    1.6535  -20.9105 C   0  0  0  0  0  0  0  0  0  0  0  0
   -3.9804    1.1510  -22.0120 C   0  0  0  0  0  0  0  0  0  0  0  0
   -5.0750    0.3463  -21.8080 C   0  0  0  0  0  0  0  0  0  0  0  0
   -5.4803    0.0015  -20.4883 C   0  0  0  0  0  0  0  0  0  0  0  0
   -5.6480   -0.0027  -22.6626 H   0  0  0  0  0  0  0  0  0  0  0  0
   -3.6822    1.4125  -23.0227 H   0  0  0  0  0  0  0  0  0  0  0  0
   -2.3863    2.2921  -21.0868 H   0  0  0  0  0  0  0  0  0  0  0  0
   -3.0958    1.7491  -18.7753 H   0  0  0  0  0  0  0  0  0  0  0  0
   -4.6373    0.5972  -17.2297 H   0  0  0  0  0  0  0  0  0  0  0  0
   -7.8076   -1.6457  -18.6256 H   0  0  0  0  0  0  0  0  0  0  0  0
   -7.0158   -2.5523  -21.9641 C   0  0  0  0  0  0  0  0  0  0  0  0
   -8.2964   -2.8554  -22.7617 C   0  0  2  0  0  0  0  0  0  0  0  0
   -8.0455   -3.5840  -24.0866 C   0  0  0  0  0  0  0  0  0  0  0  0
   -7.2668   -5.1568  -23.7589 S   0  0  0  0  0  0  0  0  0  0  0  0
   -8.1340   -5.9272  -22.8846 O   0  0  0  0  0  0  0  0  0  0  0  0
   -5.8865   -4.9097  -23.3461 O   0  0  0  0  0  0  0  0  0  0  0  0
   -7.2902   -5.8975  -25.2764 N   0  0  0  0  0  0  0  0  0  0  0  0
   -6.4842   -5.2727  -26.3245 C   0  0  0  0  0  0  0  0  0  0  0  0
   -5.4305   -5.1449  -26.0373 H   0  0  0  0  0  0  0  0  0  0  0  0
   -6.5331   -5.9257  -27.2029 H   0  0  0  0  0  0  0  0  0  0  0  0
   -6.9155   -4.3143  -26.6299 H   0  0  0  0  0  0  0  0  0  0  0  0
   -6.9768   -7.3207  -25.1355 C   0  0  0  0  0  0  0  0  0  0  0  0
   -5.9420   -7.4863  -24.7985 H   0  0  0  0  0  0  0  0  0  0  0  0
   -7.6709   -7.7676  -24.4215 H   0  0  0  0  0  0  0  0  0  0  0  0
   -7.1160   -7.8065  -26.1064 H   0  0  0  0  0  0  0  0  0  0  0  0
   -7.3700   -3.0078  -24.7310 H   0  0  0  0  0  0  0  0  0  0  0  0
   -8.9870   -3.7833  -24.6117 H   0  0  0  0  0  0  0  0  0  0  0  0
   -8.8920   -3.5372  -22.1505 H   0  0  0  0  0  0  0  0  0  0  0  0
   -6.1598   -2.3454  -22.6228 H   0  0  0  0  0  0  0  0  0  0  0  0
   -6.7376   -3.3866  -21.3143 H   0  0  0  0  0  0  0  0  0  0  0  0
  -10.5688   -1.6183  -22.7612 C   0  0  0  0  0  0  0  0  0  0  0  0
  -11.1369   -2.5541  -21.8945 C   0  0  0  0  0  0  0  0  0  0  0  0
  -12.5023   -2.5819  -21.7202 C   0  0  0  0  0  0  0  0  0  0  0  0
  -12.9924   -3.4498  -20.8190 F   0  0  0  0  0  0  0  0  0  0  0  0
  -13.3616   -1.7307  -22.4093 C   0  0  0  0  0  0  0  0  0  0  0  0
  -12.8028   -0.7860  -23.2461 C   0  0  0  0  0  0  0  0  0  0  0  0
  -11.4187   -0.6977  -23.3873 C   0  0  0  0  0  0  0  0  0  0  0  0
  -10.8728    0.4669  -24.1551 C   0  0  0  0  0  0  0  0  0  0  0  0
  -11.5932    1.3460  -24.5994 O   0  0  0  0  0  0  0  0  0  0  0  0
  -13.4182   -0.0742  -23.7849 H   0  0  0  0  0  0  0  0  0  0  0  0
  -14.4314   -1.8042  -22.2534 H   0  0  0  0  0  0  0  0  0  0  0  0
  -10.5407   -3.2581  -21.3239 H   0  0  0  0  0  0  0  0  0  0  0  0
   -7.6595   -0.4748  -24.1748 H   0  0  0  0  0  0  0  0  0  0  0  0
   -8.9228   -1.3955  -25.0260 H   0  0  0  0  0  0  0  0  0  0  0  0
   -9.6770    2.3550  -25.1180 H   0  0  0  0  0  0  0  0  0  0  0  0
   -8.3695    1.3796  -25.8107 H   0  0  0  0  0  0  0  0  0  0  0  0
   -9.2733    2.7664  -22.5324 H   0  0  0  0  0  0  0  0  0  0  0  0
   -7.8798    4.0575  -21.1416 H   0  0  0  0  0  0  0  0  0  0  0  0
   -6.6503    4.1063  -22.3948 H   0  0  0  0  0  0  0  0  0  0  0  0
   -6.8256    2.6129  -21.4451 H   0  0  0  0  0  0  0  0  0  0  0  0
  1  2  1  0
  2  3  1  0
  3  4  2  0
  3  5  1  0
  5  6  1  0
  6  7  1  0
  8  7  1  6
  8  9  1  0
  9 10  2  0
  9 11  1  0
 11 12  1  0
 12 13  2  0
 13 14  1  0
 14 15  2  0
 15 16  1  0
 16 17  2  0
 17 18  1  0
 18 19  2  0
 19 20  1  0
 20 21  2  0
 20 22  1  0
 19 23  1  0
 18 24  1  0
 17 25  1  0
 15 26  1  0
 13 27  1  0
 11 28  1  0
 28 29  1  0
 29 30  1  0
 30 31  1  0
 31 32  2  0
 31 33  2  0
 31 34  1  0
 34 35  1  0
 35 36  1  0
 35 37  1  0
 35 38  1  0
 34 39  1  0
 39 40  1  0
 39 41  1  0
 39 42  1  0
 30 43  1  0
 30 44  1  0
 29 45  1  1
 28 46  1  0
 28 47  1  0
  8 48  1  0
 48 49  2  0
 49 50  1  0
 50 51  1  0
 50 52  2  0
 52 53  1  0
 53 54  2  0
 54 55  1  0
 55 56  2  0
 53 57  1  0
 52 58  1  0
 49 59  1  0
  7 60  1  0
  7 61  1  0
  5 62  1  0
  5 63  1  0
  2 64  1  0
  1 65  1  0
  1 66  1  0
  1 67  1  0
 55  6  1  0
 29  8  1  0
 54 48  1  0
 21 12  1  0
 21 16  1  0
M  END
>  <cnnaffinities>  (40) 
[6.08633]

>  <score>  (40) 
6.08633

>  <index>  (40) 
41

>  <Smiles>  (40) 
C(N(C(=O)C(N1C([C@@]2(C(=O)N(c3c(nc(c4c(c(c(c(c34)[H])[H])[H])[H])[H])[H])C([C@@]2(C(S(=O)(=O)N(C([H])([H])[H])C([H])([H])[H])([H])[H])[H])([H])[H])c2c(c(F)c(c(c2C1=O)[H])[H])[H])([H])[H])([H])[H])[H])([H])([H])[H]

>  <h>  (40) 
<NA>

>  <Training>  (40) 
True

>  <Success>  (40) 
True

>  <enamine_searched>  (40) 
False

>  <enamine_id>  (40) 
nan

$$$$

     RDKit          3D

 67 72  0  0  0  0  0  0  0  0999 V2000
  -14.4908   -0.3605  -22.8074 C   0  0  0  0  0  0  0  0  0  0  0  0
  -13.8331   -1.4678  -22.1252 N   0  0  0  0  0  0  0  0  0  0  0  0
  -12.9577   -2.2500  -22.8273 C   0  0  0  0  0  0  0  0  0  0  0  0
  -12.7286   -2.0715  -24.0130 O   0  0  0  0  0  0  0  0  0  0  0  0
  -12.2510   -3.3593  -22.0540 C   0  0  0  0  0  0  0  0  0  0  0  0
  -10.8532   -3.4977  -22.4411 N   0  0  0  0  0  0  0  0  0  0  0  0
   -9.8156   -2.9945  -21.5558 C   0  0  0  0  0  0  0  0  0  0  0  0
   -8.5399   -2.5587  -22.3307 C   0  0  2  0  0  0  0  0  0  0  0  0
   -7.4403   -2.3853  -21.2866 C   0  0  0  0  0  0  0  0  0  0  0  0
   -6.8355   -3.2742  -20.7136 O   0  0  0  0  0  0  0  0  0  0  0  0
   -7.2428   -1.0423  -21.0680 N   0  0  0  0  0  0  0  0  0  0  0  0
   -6.4117   -0.5902  -20.0185 C   0  0  0  0  0  0  0  0  0  0  0  0
   -6.6879   -0.8834  -18.7063 C   0  0  0  0  0  0  0  0  0  0  0  0
   -6.0138   -0.3554  -17.6512 N   0  0  0  0  0  0  0  0  0  0  0  0
   -5.0092    0.4468  -17.9146 C   0  0  0  0  0  0  0  0  0  0  0  0
   -4.5646    0.7574  -19.2298 C   0  0  0  0  0  0  0  0  0  0  0  0
   -3.4337    1.5797  -19.4642 C   0  0  0  0  0  0  0  0  0  0  0  0
   -3.0072    1.8191  -20.7414 C   0  0  0  0  0  0  0  0  0  0  0  0
   -3.6934    1.2538  -21.8402 C   0  0  0  0  0  0  0  0  0  0  0  0
   -4.8058    0.4752  -21.6364 C   0  0  0  0  0  0  0  0  0  0  0  0
   -5.2729    0.2173  -20.3216 C   0  0  0  0  0  0  0  0  0  0  0  0
   -5.3355    0.0432  -22.4768 H   0  0  0  0  0  0  0  0  0  0  0  0
   -3.3475    1.4469  -22.8511 H   0  0  0  0  0  0  0  0  0  0  0  0
   -2.1405    2.4484  -20.9210 H   0  0  0  0  0  0  0  0  0  0  0  0
   -2.9317    2.0175  -18.6055 H   0  0  0  0  0  0  0  0  0  0  0  0
   -4.4728    0.8782  -17.0680 H   0  0  0  0  0  0  0  0  0  0  0  0
   -7.5019   -1.5585  -18.4504 H   0  0  0  0  0  0  0  0  0  0  0  0
   -8.1369   -0.1866  -21.8363 C   0  0  0  0  0  0  0  0  0  0  0  0
   -8.6498   -1.1262  -22.9412 C   0  0  2  0  0  0  0  0  0  0  0  0
  -10.0378   -0.7345  -23.4562 C   0  0  0  0  0  0  0  0  0  0  0  0
   -9.9819    0.4837  -24.2169 N   0  0  0  0  0  0  0  0  0  0  0  0
  -10.5441    1.6602  -23.8026 C   0  0  0  0  0  0  0  0  0  0  0  0
  -11.2724    1.8900  -22.2420 S   0  0  0  0  0  0  0  0  0  0  0  0
  -11.6622    3.5157  -22.7279 C   0  0  0  0  0  0  0  0  0  0  0  0
  -11.2543    3.8565  -23.9050 N   0  0  0  0  0  0  0  0  0  0  0  0
  -10.5932    2.8153  -24.5203 C   0  0  0  0  0  0  0  0  0  0  0  0
   -9.9088    2.9646  -25.8426 C   0  0  0  0  0  0  0  0  0  0  0  0
  -10.2989    2.2596  -26.5881 H   0  0  0  0  0  0  0  0  0  0  0  0
   -8.8355    2.7572  -25.7324 H   0  0  0  0  0  0  0  0  0  0  0  0
  -10.0355    3.9784  -26.2257 H   0  0  0  0  0  0  0  0  0  0  0  0
  -12.2062    4.1645  -22.0513 H   0  0  0  0  0  0  0  0  0  0  0  0
   -9.8770    0.3852  -25.2160 H   0  0  0  0  0  0  0  0  0  0  0  0
  -10.7321   -0.5906  -22.6179 H   0  0  0  0  0  0  0  0  0  0  0  0
  -10.4382   -1.5171  -24.1046 H   0  0  0  0  0  0  0  0  0  0  0  0
   -7.9570   -1.0867  -23.7974 H   0  0  0  0  0  0  0  0  0  0  0  0
   -8.9580    0.1947  -21.2073 H   0  0  0  0  0  0  0  0  0  0  0  0
   -7.6049    0.6802  -22.2379 H   0  0  0  0  0  0  0  0  0  0  0  0
   -8.1604   -3.6172  -23.3431 C   0  0  0  0  0  0  0  0  0  0  0  0
   -6.8557   -3.7123  -23.8551 C   0  0  0  0  0  0  0  0  0  0  0  0
   -6.5238   -4.7027  -24.7650 C   0  0  0  0  0  0  0  0  0  0  0  0
   -4.9017   -4.8036  -25.3900 Cl  0  0  0  0  0  0  0  0  0  0  0  0
   -7.4678   -5.6273  -25.2092 C   0  0  0  0  0  0  0  0  0  0  0  0
   -8.7512   -5.5307  -24.7121 C   0  0  0  0  0  0  0  0  0  0  0  0
   -9.0956   -4.5421  -23.7892 C   0  0  0  0  0  0  0  0  0  0  0  0
  -10.5062   -4.5079  -23.3082 C   0  0  0  0  0  0  0  0  0  0  0  0
  -11.2857   -5.3458  -23.7064 O   0  0  0  0  0  0  0  0  0  0  0  0
   -9.5190   -6.2310  -25.0181 H   0  0  0  0  0  0  0  0  0  0  0  0
   -7.2009   -6.4055  -25.9192 H   0  0  0  0  0  0  0  0  0  0  0  0
   -6.0778   -3.0327  -23.5323 H   0  0  0  0  0  0  0  0  0  0  0  0
  -10.2165   -2.1429  -20.9969 H   0  0  0  0  0  0  0  0  0  0  0  0
   -9.5410   -3.7620  -20.8169 H   0  0  0  0  0  0  0  0  0  0  0  0
  -12.3339   -3.2063  -20.9733 H   0  0  0  0  0  0  0  0  0  0  0  0
  -12.7574   -4.2934  -22.3069 H   0  0  0  0  0  0  0  0  0  0  0  0
  -14.2259   -1.8365  -21.2656 H   0  0  0  0  0  0  0  0  0  0  0  0
  -15.5657   -0.5242  -22.9369 H   0  0  0  0  0  0  0  0  0  0  0  0
  -14.3373    0.5955  -22.2947 H   0  0  0  0  0  0  0  0  0  0  0  0
  -14.0280   -0.2968  -23.7952 H   0  0  0  0  0  0  0  0  0  0  0  0
  1  2  1  0
  2  3  1  0
  3  4  2  0
  3  5  1  0
  5  6  1  0
  6  7  1  0
  8  7  1  1
  8  9  1  0
  9 10  2  0
  9 11  1  0
 11 12  1  0
 12 13  2  0
 13 14  1  0
 14 15  2  0
 15 16  1  0
 16 17  2  0
 17 18  1  0
 18 19  2  0
 19 20  1  0
 20 21  2  0
 20 22  1  0
 19 23  1  0
 18 24  1  0
 17 25  1  0
 15 26  1  0
 13 27  1  0
 11 28  1  0
 28 29  1  0
 29 30  1  0
 30 31  1  0
 31 32  1  0
 32 33  1  0
 33 34  1  0
 34 35  2  0
 35 36  1  0
 36 37  1  0
 37 38  1  0
 37 39  1  0
 37 40  1  0
 34 41  1  0
 31 42  1  0
 30 43  1  0
 30 44  1  0
 29 45  1  6
 28 46  1  0
 28 47  1  0
  8 48  1  0
 48 49  2  0
 49 50  1  0
 50 51  1  0
 50 52  2  0
 52 53  1  0
 53 54  2  0
 54 55  1  0
 55 56  2  0
 53 57  1  0
 52 58  1  0
 49 59  1  0
  7 60  1  0
  7 61  1  0
  5 62  1  0
  5 63  1  0
  2 64  1  0
  1 65  1  0
  1 66  1  0
  1 67  1  0
 55  6  1  0
 29  8  1  0
 36 32  2  0
 54 48  1  0
 21 12  1  0
 21 16  1  0
M  END
>  <cnnaffinities>  (41) 
[7.12496, 6.40707]

>  <score>  (41) 
7.12496

>  <index>  (41) 
43

>  <Smiles>  (41) 
C(N(C(=O)C(N1C([C@@]2(C(=O)N(c3c(nc(c4c(c(c(c(c34)[H])[H])[H])[H])[H])[H])C([C@@]2(C(N(c2sc(nc2C([H])([H])[H])[H])[H])([H])[H])[H])([H])[H])c2c(c(Cl)c(c(c2C1=O)[H])[H])[H])([H])[H])([H])[H])[H])([H])([H])[H]

>  <h>  (41) 
<NA>

>  <Training>  (41) 
True

>  <Success>  (41) 
True

>  <enamine_searched>  (41) 
False

>  <enamine_id>  (41) 
nan

$$$$

     RDKit          3D

 60 64  0  0  0  0  0  0  0  0999 V2000
   -8.1162    0.0341  -29.7895 C   0  0  0  0  0  0  0  0  0  0  0  0
   -8.1879   -1.1130  -28.9083 N   0  0  0  0  0  0  0  0  0  0  0  0
   -7.4286   -1.1071  -27.7775 C   0  0  0  0  0  0  0  0  0  0  0  0
   -6.6448   -0.2101  -27.5056 O   0  0  0  0  0  0  0  0  0  0  0  0
   -7.6397   -2.3211  -26.8600 C   0  0  0  0  0  0  0  0  0  0  0  0
   -8.4753   -1.9628  -25.7233 N   0  0  0  0  0  0  0  0  0  0  0  0
   -7.8803   -1.3060  -24.5538 C   0  0  0  0  0  0  0  0  0  0  0  0
   -8.6993   -1.5623  -23.2542 C   0  0  2  0  0  0  0  0  0  0  0  0
   -8.1276   -0.6381  -22.1632 C   0  0  0  0  0  0  0  0  0  0  0  0
   -8.2416    0.5695  -22.1164 O   0  0  0  0  0  0  0  0  0  0  0  0
   -7.4235   -1.3894  -21.2357 N   0  0  0  0  0  0  0  0  0  0  0  0
   -6.6222   -0.8131  -20.2148 C   0  0  0  0  0  0  0  0  0  0  0  0
   -6.9166   -1.0646  -18.8972 C   0  0  0  0  0  0  0  0  0  0  0  0
   -6.2385   -0.5588  -17.8378 N   0  0  0  0  0  0  0  0  0  0  0  0
   -5.2060    0.2065  -18.0988 C   0  0  0  0  0  0  0  0  0  0  0  0
   -4.7597    0.5155  -19.4133 C   0  0  0  0  0  0  0  0  0  0  0  0
   -3.6227    1.3389  -19.6271 C   0  0  0  0  0  0  0  0  0  0  0  0
   -3.1961    1.6094  -20.8968 C   0  0  0  0  0  0  0  0  0  0  0  0
   -3.8816    1.0654  -22.0049 C   0  0  0  0  0  0  0  0  0  0  0  0
   -4.9843    0.2718  -21.8224 C   0  0  0  0  0  0  0  0  0  0  0  0
   -5.4687   -0.0129  -20.5136 C   0  0  0  0  0  0  0  0  0  0  0  0
   -5.5056   -0.1285  -22.6849 H   0  0  0  0  0  0  0  0  0  0  0  0
   -3.5329    1.2838  -23.0088 H   0  0  0  0  0  0  0  0  0  0  0  0
   -2.3295    2.2418  -21.0601 H   0  0  0  0  0  0  0  0  0  0  0  0
   -3.1133    1.7527  -18.7613 H   0  0  0  0  0  0  0  0  0  0  0  0
   -4.6564    0.6141  -17.2505 H   0  0  0  0  0  0  0  0  0  0  0  0
   -7.7672   -1.6962  -18.6487 H   0  0  0  0  0  0  0  0  0  0  0  0
   -7.3882   -2.8123  -21.5350 C   0  0  0  0  0  0  0  0  0  0  0  0
   -8.5213   -2.9627  -22.5568 C   0  0  2  0  0  0  0  0  0  0  0  0
   -8.3917   -4.1745  -23.4616 C   0  0  0  0  0  0  0  0  0  0  0  0
   -7.1336   -4.1579  -24.1020 O   0  0  0  0  0  0  0  0  0  0  0  0
   -6.9571   -5.2673  -24.9431 C   0  0  0  0  0  0  0  0  0  0  0  0
   -6.9944   -6.2096  -24.3766 H   0  0  0  0  0  0  0  0  0  0  0  0
   -5.9728   -5.1827  -25.4113 H   0  0  0  0  0  0  0  0  0  0  0  0
   -7.7287   -5.3029  -25.7281 H   0  0  0  0  0  0  0  0  0  0  0  0
   -8.5018   -5.0980  -22.8665 H   0  0  0  0  0  0  0  0  0  0  0  0
   -9.2023   -4.1570  -24.2047 H   0  0  0  0  0  0  0  0  0  0  0  0
   -9.4435   -3.1056  -21.9765 H   0  0  0  0  0  0  0  0  0  0  0  0
   -7.5660   -3.3990  -20.6245 H   0  0  0  0  0  0  0  0  0  0  0  0
   -6.4143   -3.1206  -21.9412 H   0  0  0  0  0  0  0  0  0  0  0  0
  -10.1614   -1.2734  -23.5862 C   0  0  0  0  0  0  0  0  0  0  0  0
  -11.0965   -1.0426  -22.5757 C   0  0  0  0  0  0  0  0  0  0  0  0
  -12.4490   -0.9597  -22.8811 C   0  0  0  0  0  0  0  0  0  0  0  0
  -13.6423   -1.1160  -21.6316 Cl  0  0  0  0  0  0  0  0  0  0  0  0
  -12.9051   -0.9048  -24.1932 C   0  0  0  0  0  0  0  0  0  0  0  0
  -11.9871   -1.1130  -25.1917 C   0  0  0  0  0  0  0  0  0  0  0  0
  -10.6528   -1.3592  -24.8901 C   0  0  0  0  0  0  0  0  0  0  0  0
   -9.7989   -1.8284  -26.0024 C   0  0  0  0  0  0  0  0  0  0  0  0
  -10.2665   -2.0986  -27.1140 O   0  0  0  0  0  0  0  0  0  0  0  0
  -12.2975   -1.1987  -26.2224 H   0  0  0  0  0  0  0  0  0  0  0  0
  -13.9545   -0.7488  -24.4116 H   0  0  0  0  0  0  0  0  0  0  0  0
  -10.7600   -0.9322  -21.5569 H   0  0  0  0  0  0  0  0  0  0  0  0
   -6.8592   -1.6816  -24.4480 H   0  0  0  0  0  0  0  0  0  0  0  0
   -7.8361   -0.2121  -24.7047 H   0  0  0  0  0  0  0  0  0  0  0  0
   -6.6843   -2.7046  -26.4922 H   0  0  0  0  0  0  0  0  0  0  0  0
   -8.1364   -3.1246  -27.4136 H   0  0  0  0  0  0  0  0  0  0  0  0
   -9.0348   -1.6684  -28.9020 H   0  0  0  0  0  0  0  0  0  0  0  0
   -8.3817    0.9660  -29.2729 H   0  0  0  0  0  0  0  0  0  0  0  0
   -8.7979   -0.1154  -30.6285 H   0  0  0  0  0  0  0  0  0  0  0  0
   -7.0964    0.1280  -30.1738 H   0  0  0  0  0  0  0  0  0  0  0  0
  1  2  1  0
  2  3  1  0
  3  4  2  0
  3  5  1  0
  5  6  1  0
  6  7  1  0
  8  7  1  6
  8  9  1  0
  9 10  2  0
  9 11  1  0
 11 12  1  0
 12 13  2  0
 13 14  1  0
 14 15  2  0
 15 16  1  0
 16 17  2  0
 17 18  1  0
 18 19  2  0
 19 20  1  0
 20 21  2  0
 20 22  1  0
 19 23  1  0
 18 24  1  0
 17 25  1  0
 15 26  1  0
 13 27  1  0
 11 28  1  0
 28 29  1  0
 29 30  1  0
 30 31  1  0
 31 32  1  0
 32 33  1  0
 32 34  1  0
 32 35  1  0
 30 36  1  0
 30 37  1  0
 29 38  1  1
 28 39  1  0
 28 40  1  0
  8 41  1  0
 41 42  2  0
 42 43  1  0
 43 44  1  0
 43 45  2  0
 45 46  1  0
 46 47  2  0
 47 48  1  0
 48 49  2  0
 46 50  1  0
 45 51  1  0
 42 52  1  0
  7 53  1  0
  7 54  1  0
  5 55  1  0
  5 56  1  0
  2 57  1  0
  1 58  1  0
  1 59  1  0
  1 60  1  0
 48  6  1  0
 29  8  1  0
 47 41  1  0
 21 12  1  0
 21 16  1  0
M  END
>  <cnnaffinities>  (42) 
[5.96482, 6.038, 6.16443]

>  <score>  (42) 
5.96482

>  <index>  (42) 
44

>  <Smiles>  (42) 
C(N(C(=O)C(N1C([C@@]2(C(=O)N(c3c(nc(c4c(c(c(c(c34)[H])[H])[H])[H])[H])[H])C([C@@]2(C(OC([H])([H])[H])([H])[H])[H])([H])[H])c2c(c(Cl)c(c(c2C1=O)[H])[H])[H])([H])[H])([H])[H])[H])([H])([H])[H]

>  <h>  (42) 
<NA>

>  <Training>  (42) 
True

>  <Success>  (42) 
True

>  <enamine_searched>  (42) 
False

>  <enamine_id>  (42) 
nan

$$$$

     RDKit          3D

 66 71  0  0  0  0  0  0  0  0999 V2000
   -7.4441    3.3660  -21.7828 C   0  0  0  0  0  0  0  0  0  0  0  0
   -8.3192    2.9014  -22.8384 N   0  0  0  0  0  0  0  0  0  0  0  0
   -7.7577    2.2146  -23.8548 C   0  0  0  0  0  0  0  0  0  0  0  0
   -6.5410    2.1079  -23.9715 O   0  0  0  0  0  0  0  0  0  0  0  0
   -8.7062    1.5944  -24.8766 C   0  0  0  0  0  0  0  0  0  0  0  0
   -9.4201    0.4389  -24.3710 N   0  0  0  0  0  0  0  0  0  0  0  0
   -8.6800   -0.8008  -24.2158 C   0  0  0  0  0  0  0  0  0  0  0  0
   -9.0500   -1.5206  -22.9023 C   0  0  2  0  0  0  0  0  0  0  0  0
   -8.5148   -0.7382  -21.6765 C   0  0  0  0  0  0  0  0  0  0  0  0
   -8.9799    0.2700  -21.1848 O   0  0  0  0  0  0  0  0  0  0  0  0
   -7.3961   -1.3844  -21.2018 N   0  0  0  0  0  0  0  0  0  0  0  0
   -6.6001   -0.8123  -20.1739 C   0  0  0  0  0  0  0  0  0  0  0  0
   -6.9112   -1.0412  -18.8564 C   0  0  0  0  0  0  0  0  0  0  0  0
   -6.2125   -0.5444  -17.8070 N   0  0  0  0  0  0  0  0  0  0  0  0
   -5.1722    0.2097  -18.0756 C   0  0  0  0  0  0  0  0  0  0  0  0
   -4.7315    0.5264  -19.3932 C   0  0  0  0  0  0  0  0  0  0  0  0
   -3.6058    1.3609  -19.6382 C   0  0  0  0  0  0  0  0  0  0  0  0
   -3.2204    1.6531  -20.9193 C   0  0  0  0  0  0  0  0  0  0  0  0
   -3.9434    1.1276  -22.0138 C   0  0  0  0  0  0  0  0  0  0  0  0
   -5.0367    0.3203  -21.8017 C   0  0  0  0  0  0  0  0  0  0  0  0
   -5.4631    0.0004  -20.4838 C   0  0  0  0  0  0  0  0  0  0  0  0
   -5.5982   -0.0600  -22.6495 H   0  0  0  0  0  0  0  0  0  0  0  0
   -3.6517    1.3772  -23.0284 H   0  0  0  0  0  0  0  0  0  0  0  0
   -2.3684    2.3046  -21.0975 H   0  0  0  0  0  0  0  0  0  0  0  0
   -3.0774    1.7746  -18.7836 H   0  0  0  0  0  0  0  0  0  0  0  0
   -4.6196    0.6131  -17.2266 H   0  0  0  0  0  0  0  0  0  0  0  0
   -7.7647   -1.6665  -18.6041 H   0  0  0  0  0  0  0  0  0  0  0  0
   -7.0503   -2.5890  -21.9311 C   0  0  0  0  0  0  0  0  0  0  0  0
   -8.3122   -2.8897  -22.7577 C   0  0  2  0  0  0  0  0  0  0  0  0
   -8.0140   -3.6751  -24.0512 C   0  0  0  0  0  0  0  0  0  0  0  0
   -7.4736   -5.0630  -23.7801 C   0  0  0  0  0  0  0  0  0  0  0  0
   -8.3493   -6.1148  -23.5012 C   0  0  0  0  0  0  0  0  0  0  0  0
   -7.8726   -7.3900  -23.2104 C   0  0  0  0  0  0  0  0  0  0  0  0
   -6.5017   -7.6344  -23.1920 C   0  0  0  0  0  0  0  0  0  0  0  0
   -5.6162   -6.5958  -23.4691 C   0  0  0  0  0  0  0  0  0  0  0  0
   -6.1003   -5.3213  -23.7573 C   0  0  0  0  0  0  0  0  0  0  0  0
   -5.3989   -4.5135  -23.9654 H   0  0  0  0  0  0  0  0  0  0  0  0
   -4.5432   -6.7802  -23.4587 H   0  0  0  0  0  0  0  0  0  0  0  0
   -6.1236   -8.6298  -22.9632 H   0  0  0  0  0  0  0  0  0  0  0  0
   -8.5768   -8.1912  -22.9936 H   0  0  0  0  0  0  0  0  0  0  0  0
   -9.4226   -5.9259  -23.5077 H   0  0  0  0  0  0  0  0  0  0  0  0
   -8.9356   -3.7531  -24.6461 H   0  0  0  0  0  0  0  0  0  0  0  0
   -7.2895   -3.1134  -24.6549 H   0  0  0  0  0  0  0  0  0  0  0  0
   -8.9619   -3.5260  -22.1523 H   0  0  0  0  0  0  0  0  0  0  0  0
   -6.7962   -3.4051  -21.2450 H   0  0  0  0  0  0  0  0  0  0  0  0
   -6.1780   -2.4261  -22.5827 H   0  0  0  0  0  0  0  0  0  0  0  0
  -10.5596   -1.5874  -22.8302 C   0  0  0  0  0  0  0  0  0  0  0  0
  -11.1503   -2.4763  -21.9346 C   0  0  0  0  0  0  0  0  0  0  0  0
  -12.5185   -2.5115  -21.7755 C   0  0  0  0  0  0  0  0  0  0  0  0
  -13.1208   -3.5757  -20.5352 Cl  0  0  0  0  0  0  0  0  0  0  0  0
  -13.3549   -1.6867  -22.5311 C   0  0  0  0  0  0  0  0  0  0  0  0
  -12.7719   -0.7602  -23.3793 C   0  0  0  0  0  0  0  0  0  0  0  0
  -11.3845   -0.6759  -23.5010 C   0  0  0  0  0  0  0  0  0  0  0  0
  -10.7887    0.4670  -24.2740 C   0  0  0  0  0  0  0  0  0  0  0  0
  -11.4739    1.3693  -24.7452 O   0  0  0  0  0  0  0  0  0  0  0  0
  -13.3758   -0.0547  -23.9382 H   0  0  0  0  0  0  0  0  0  0  0  0
  -14.4326   -1.7623  -22.4386 H   0  0  0  0  0  0  0  0  0  0  0  0
  -10.5438   -3.1335  -21.3259 H   0  0  0  0  0  0  0  0  0  0  0  0
   -8.8951   -1.4768  -25.0590 H   0  0  0  0  0  0  0  0  0  0  0  0
   -7.6140   -0.5518  -24.2162 H   0  0  0  0  0  0  0  0  0  0  0  0
   -9.4784    2.3004  -25.1879 H   0  0  0  0  0  0  0  0  0  0  0  0
   -8.0767    1.3204  -25.7297 H   0  0  0  0  0  0  0  0  0  0  0  0
   -9.3055    2.8002  -22.6565 H   0  0  0  0  0  0  0  0  0  0  0  0
   -6.7430    4.1124  -22.1600 H   0  0  0  0  0  0  0  0  0  0  0  0
   -8.0476    3.8287  -21.0077 H   0  0  0  0  0  0  0  0  0  0  0  0
   -6.8588    2.5244  -21.3883 H   0  0  0  0  0  0  0  0  0  0  0  0
  1  2  1  0
  2  3  1  0
  3  4  2  0
  3  5  1  0
  5  6  1  0
  6  7  1  0
  8  7  1  6
  8  9  1  0
  9 10  2  0
  9 11  1  0
 11 12  1  0
 12 13  2  0
 13 14  1  0
 14 15  2  0
 15 16  1  0
 16 17  2  0
 17 18  1  0
 18 19  2  0
 19 20  1  0
 20 21  2  0
 20 22  1  0
 19 23  1  0
 18 24  1  0
 17 25  1  0
 15 26  1  0
 13 27  1  0
 11 28  1  0
 28 29  1  0
 29 30  1  0
 30 31  1  0
 31 32  2  0
 32 33  1  0
 33 34  2  0
 34 35  1  0
 35 36  2  0
 36 37  1  0
 35 38  1  0
 34 39  1  0
 33 40  1  0
 32 41  1  0
 30 42  1  0
 30 43  1  0
 29 44  1  1
 28 45  1  0
 28 46  1  0
  8 47  1  0
 47 48  2  0
 48 49  1  0
 49 50  1  0
 49 51  2  0
 51 52  1  0
 52 53  2  0
 53 54  1  0
 54 55  2  0
 52 56  1  0
 51 57  1  0
 48 58  1  0
  7 59  1  0
  7 60  1  0
  5 61  1  0
  5 62  1  0
  2 63  1  0
  1 64  1  0
  1 65  1  0
  1 66  1  0
 54  6  1  0
 29  8  1  0
 36 31  1  0
 53 47  1  0
 21 12  1  0
 21 16  1  0
M  END
>  <cnnaffinities>  (43) 
[6.49261, 6.5204, 6.6036]

>  <score>  (43) 
6.49261

>  <index>  (43) 
45

>  <Smiles>  (43) 
C(N(C(=O)C(N1C([C@@]2(C(=O)N(c3c(nc(c4c(c(c(c(c34)[H])[H])[H])[H])[H])[H])C([C@@]2(C(c2c(c(c(c(c2[H])[H])[H])[H])[H])([H])[H])[H])([H])[H])c2c(c(Cl)c(c(c2C1=O)[H])[H])[H])([H])[H])([H])[H])[H])([H])([H])[H]

>  <h>  (43) 
<NA>

>  <Training>  (43) 
True

>  <Success>  (43) 
True

>  <enamine_searched>  (43) 
False

>  <enamine_id>  (43) 
nan

$$$$

     RDKit          3D

 50 54  0  0  0  0  0  0  0  0999 V2000
   -9.7658   -0.7357  -23.6155 C   0  0  0  0  0  0  0  0  0  0  0  0
   -8.4721   -1.1502  -22.9156 C   0  0  1  0  0  0  0  0  0  0  0  0
   -8.0471   -0.2396  -21.7537 C   0  0  0  0  0  0  0  0  0  0  0  0
   -7.1271   -1.0833  -20.9924 N   0  0  0  0  0  0  0  0  0  0  0  0
   -6.3053   -0.6081  -19.9428 C   0  0  0  0  0  0  0  0  0  0  0  0
   -6.5829   -0.8668  -18.6224 C   0  0  0  0  0  0  0  0  0  0  0  0
   -5.9245   -0.2945  -17.5801 N   0  0  0  0  0  0  0  0  0  0  0  0
   -4.9361    0.5233  -17.8563 C   0  0  0  0  0  0  0  0  0  0  0  0
   -4.4917    0.8104  -19.1783 C   0  0  0  0  0  0  0  0  0  0  0  0
   -3.3687    1.6425  -19.4335 C   0  0  0  0  0  0  0  0  0  0  0  0
   -2.9569    1.8705  -20.7195 C   0  0  0  0  0  0  0  0  0  0  0  0
   -3.6510    1.2867  -21.8048 C   0  0  0  0  0  0  0  0  0  0  0  0
   -4.7480    0.4937  -21.5794 C   0  0  0  0  0  0  0  0  0  0  0  0
   -5.1948    0.2353  -20.2566 C   0  0  0  0  0  0  0  0  0  0  0  0
   -5.2782    0.0427  -22.4094 H   0  0  0  0  0  0  0  0  0  0  0  0
   -3.3189    1.4753  -22.8227 H   0  0  0  0  0  0  0  0  0  0  0  0
   -2.0968    2.5060  -20.9152 H   0  0  0  0  0  0  0  0  0  0  0  0
   -2.8588    2.1021  -18.5889 H   0  0  0  0  0  0  0  0  0  0  0  0
   -4.4188    0.9840  -17.0119 H   0  0  0  0  0  0  0  0  0  0  0  0
   -7.3853   -1.5479  -18.3498 H   0  0  0  0  0  0  0  0  0  0  0  0
   -7.2801   -2.4259  -21.2589 C   0  0  0  0  0  0  0  0  0  0  0  0
   -6.6284   -3.3217  -20.7519 O   0  0  0  0  0  0  0  0  0  0  0  0
   -8.4264   -2.5828  -22.2688 C   0  0  1  0  0  0  0  0  0  0  0  0
   -9.6672   -2.9364  -21.4109 C   0  0  0  0  0  0  0  0  0  0  0  0
  -10.7624   -3.4245  -22.2264 N   0  0  0  0  0  0  0  0  0  0  0  0
  -12.1545   -3.1980  -21.8841 C   0  0  0  0  0  0  0  0  0  0  0  0
  -12.8503   -2.4368  -22.9406 C   0  0  0  0  0  0  0  0  0  0  0  0
  -13.3698   -1.8505  -23.7908 N   0  0  0  0  0  0  0  0  0  0  0  0
  -12.2339   -2.6604  -20.9396 H   0  0  0  0  0  0  0  0  0  0  0  0
  -12.6516   -4.1685  -21.8099 H   0  0  0  0  0  0  0  0  0  0  0  0
  -10.5532   -4.4471  -23.1088 C   0  0  0  0  0  0  0  0  0  0  0  0
  -11.4561   -5.1839  -23.4509 O   0  0  0  0  0  0  0  0  0  0  0  0
   -9.1846   -4.5738  -23.6536 C   0  0  0  0  0  0  0  0  0  0  0  0
   -8.9686   -5.5914  -24.5764 C   0  0  0  0  0  0  0  0  0  0  0  0
   -7.7253   -5.7544  -25.1440 C   0  0  0  0  0  0  0  0  0  0  0  0
   -6.7160   -4.8848  -24.7484 C   0  0  0  0  0  0  0  0  0  0  0  0
   -5.4978   -5.0411  -25.2878 F   0  0  0  0  0  0  0  0  0  0  0  0
   -6.9041   -3.8881  -23.8107 C   0  0  0  0  0  0  0  0  0  0  0  0
   -8.1732   -3.6979  -23.2579 C   0  0  0  0  0  0  0  0  0  0  0  0
   -6.0592   -3.3012  -23.4726 H   0  0  0  0  0  0  0  0  0  0  0  0
   -7.5275   -6.5369  -25.8632 H   0  0  0  0  0  0  0  0  0  0  0  0
   -9.8082   -6.2355  -24.8151 H   0  0  0  0  0  0  0  0  0  0  0  0
   -9.3569   -3.6909  -20.6674 H   0  0  0  0  0  0  0  0  0  0  0  0
  -10.0007   -2.0502  -20.8617 H   0  0  0  0  0  0  0  0  0  0  0  0
   -8.9210    0.0503  -21.1474 H   0  0  0  0  0  0  0  0  0  0  0  0
   -7.5588    0.6860  -22.0692 H   0  0  0  0  0  0  0  0  0  0  0  0
   -7.6672   -1.1519  -23.6673 H   0  0  0  0  0  0  0  0  0  0  0  0
   -9.6486    0.2306  -24.1181 H   0  0  0  0  0  0  0  0  0  0  0  0
  -10.6016   -0.6491  -22.9109 H   0  0  0  0  0  0  0  0  0  0  0  0
  -10.0370   -1.4669  -24.3837 H   0  0  0  0  0  0  0  0  0  0  0  0
  1  2  1  0
  2  3  1  0
  3  4  1  0
  4  5  1  0
  5  6  2  0
  6  7  1  0
  7  8  2  0
  8  9  1  0
  9 10  2  0
 10 11  1  0
 11 12  2  0
 12 13  1  0
 13 14  2  0
 13 15  1  0
 12 16  1  0
 11 17  1  0
 10 18  1  0
  8 19  1  0
  6 20  1  0
  4 21  1  0
 21 22  2  0
 21 23  1  0
 23 24  1  1
 24 25  1  0
 25 26  1  0
 26 27  1  0
 27 28  3  0
 26 29  1  0
 26 30  1  0
 25 31  1  0
 31 32  2  0
 31 33  1  0
 33 34  2  0
 34 35  1  0
 35 36  2  0
 36 37  1  0
 36 38  1  0
 38 39  2  0
 38 40  1  0
 35 41  1  0
 34 42  1  0
 24 43  1  0
 24 44  1  0
  3 45  1  0
  3 46  1  0
  2 47  1  6
  1 48  1  0
  1 49  1  0
  1 50  1  0
 23  2  1  0
 39 33  1  0
 14  5  1  0
 39 23  1  0
 14  9  1  0
M  END
>  <cnnaffinities>  (44) 
[6.30239]

>  <score>  (44) 
6.30239

>  <index>  (44) 
46

>  <Smiles>  (44) 
C([C@]1(C(N(c2c(nc(c3c(c(c(c(c23)[H])[H])[H])[H])[H])[H])C(=O)[C@]21C(N(C(C#N)([H])[H])C(=O)c1c(c(c(F)c(c21)[H])[H])[H])([H])[H])([H])[H])[H])([H])([H])[H]

>  <h>  (44) 
<NA>

>  <Training>  (44) 
True

>  <Success>  (44) 
True

>  <enamine_searched>  (44) 
False

>  <enamine_id>  (44) 
nan

$$$$

     RDKit          3D

 58 63  0  0  0  0  0  0  0  0999 V2000
   -8.4966    0.7138  -21.3995 O   0  0  0  0  0  0  0  0  0  0  0  0
   -8.4524   -0.4158  -21.8517 C   0  0  0  0  0  0  0  0  0  0  0  0
   -7.4448   -1.4297  -21.2619 C   0  0  0  0  0  0  0  0  0  0  0  0
   -6.5775   -0.8315  -20.1786 C   0  0  0  0  0  0  0  0  0  0  0  0
   -6.8771   -1.0387  -18.8577 C   0  0  0  0  0  0  0  0  0  0  0  0
   -6.1935   -0.5347  -17.7933 N   0  0  0  0  0  0  0  0  0  0  0  0
   -5.1563    0.2222  -18.0626 C   0  0  0  0  0  0  0  0  0  0  0  0
   -4.7230    0.5353  -19.3800 C   0  0  0  0  0  0  0  0  0  0  0  0
   -3.5979    1.3683  -19.6219 C   0  0  0  0  0  0  0  0  0  0  0  0
   -3.2124    1.6630  -20.9011 C   0  0  0  0  0  0  0  0  0  0  0  0
   -3.9355    1.1353  -21.9939 C   0  0  0  0  0  0  0  0  0  0  0  0
   -5.0259    0.3261  -21.7862 C   0  0  0  0  0  0  0  0  0  0  0  0
   -5.4537    0.0015  -20.4709 C   0  0  0  0  0  0  0  0  0  0  0  0
   -5.5760   -0.0602  -22.6399 H   0  0  0  0  0  0  0  0  0  0  0  0
   -3.6237    1.3808  -23.0047 H   0  0  0  0  0  0  0  0  0  0  0  0
   -2.3566    2.3078  -21.0864 H   0  0  0  0  0  0  0  0  0  0  0  0
   -3.0569    1.7802  -18.7717 H   0  0  0  0  0  0  0  0  0  0  0  0
   -4.5980    0.6301  -17.2166 H   0  0  0  0  0  0  0  0  0  0  0  0
   -7.7311   -1.6595  -18.5876 H   0  0  0  0  0  0  0  0  0  0  0  0
   -6.8257   -1.8600  -22.0601 H   0  0  0  0  0  0  0  0  0  0  0  0
   -8.0180   -2.2631  -20.8331 H   0  0  0  0  0  0  0  0  0  0  0  0
   -9.3003   -0.8259  -22.8764 N   0  0  0  0  0  0  0  0  0  0  0  0
   -9.2719   -2.1308  -23.5294 C   0  0  0  0  0  0  0  0  0  0  0  0
   -8.5404   -2.1589  -24.8623 C   0  0  0  0  0  0  0  0  0  0  0  0
   -7.4389   -1.3417  -25.1015 C   0  0  0  0  0  0  0  0  0  0  0  0
   -6.7647   -1.4064  -26.3147 C   0  0  0  0  0  0  0  0  0  0  0  0
   -7.1719   -2.2816  -27.3141 C   0  0  0  0  0  0  0  0  0  0  0  0
   -8.2658   -3.1004  -27.0714 C   0  0  0  0  0  0  0  0  0  0  0  0
   -8.7925   -4.2112  -28.3084 Cl  0  0  0  0  0  0  0  0  0  0  0  0
   -8.9430   -3.0482  -25.8582 C   0  0  0  0  0  0  0  0  0  0  0  0
   -9.7801   -3.7103  -25.6860 H   0  0  0  0  0  0  0  0  0  0  0  0
   -6.6490   -2.3292  -28.2631 H   0  0  0  0  0  0  0  0  0  0  0  0
   -5.9097   -0.7609  -26.4851 H   0  0  0  0  0  0  0  0  0  0  0  0
   -7.0938   -0.6489  -24.3375 H   0  0  0  0  0  0  0  0  0  0  0  0
  -10.3051   -2.4562  -23.6844 H   0  0  0  0  0  0  0  0  0  0  0  0
   -8.8332   -2.8636  -22.8479 H   0  0  0  0  0  0  0  0  0  0  0  0
  -10.2378    0.1534  -23.4013 C   0  0  2  0  0  0  0  0  0  0  0  0
  -11.3917    0.6136  -22.4927 C   0  0  0  0  0  0  0  0  0  0  0  0
  -12.0773    1.5954  -23.4144 N   0  0  1  0  0  4  0  0  0  0  0  0
  -12.2523    2.9541  -22.8855 C   0  0  0  0  0  0  0  0  0  0  0  0
  -13.5219    3.2856  -22.1771 C   0  0  0  0  0  0  0  0  0  0  0  0
  -13.2589    3.8355  -23.5474 C   0  0  0  0  0  0  0  0  0  0  0  0
  -13.0453    4.8921  -23.6355 H   0  0  0  0  0  0  0  0  0  0  0  0
  -13.8118    3.3935  -24.3685 H   0  0  0  0  0  0  0  0  0  0  0  0
  -13.4727    3.9740  -21.3445 H   0  0  0  0  0  0  0  0  0  0  0  0
  -14.2382    2.4775  -22.0915 H   0  0  0  0  0  0  0  0  0  0  0  0
  -11.3474    3.4187  -22.5192 H   0  0  0  0  0  0  0  0  0  0  0  0
  -11.1693    1.4897  -24.6134 C   0  0  2  0  0  0  0  0  0  0  0  0
  -11.0197   -0.0300  -24.7280 C   0  0  0  0  0  0  0  0  0  0  0  0
  -10.4089   -0.3247  -25.5736 H   0  0  0  0  0  0  0  0  0  0  0  0
  -11.9495   -0.6115  -24.6708 H   0  0  0  0  0  0  0  0  0  0  0  0
   -9.7770    1.5187  -23.9722 C   0  0  0  0  0  0  0  0  0  0  0  0
   -8.9745    1.4219  -24.6964 H   0  0  0  0  0  0  0  0  0  0  0  0
   -9.5673    2.2921  -23.2274 H   0  0  0  0  0  0  0  0  0  0  0  0
  -11.4558    2.1234  -25.4476 H   0  0  0  0  0  0  0  0  0  0  0  0
  -13.0206    1.2457  -23.6630 H   0  0  0  0  0  0  0  0  0  0  0  0
  -11.0381    1.1592  -21.6246 H   0  0  0  0  0  0  0  0  0  0  0  0
  -12.0820   -0.1818  -22.2043 H   0  0  0  0  0  0  0  0  0  0  0  0
  1  2  2  0
  2  3  1  0
  3  4  1  0
  4  5  2  0
  5  6  1  0
  6  7  2  0
  7  8  1  0
  8  9  2  0
  9 10  1  0
 10 11  2  0
 11 12  1  0
 12 13  2  0
 12 14  1  0
 11 15  1  0
 10 16  1  0
  9 17  1  0
  7 18  1  0
  5 19  1  0
  3 20  1  0
  3 21  1  0
  2 22  1  0
 22 23  1  0
 23 24  1  0
 24 25  2  0
 25 26  1  0
 26 27  2  0
 27 28  1  0
 28 29  1  0
 28 30  2  0
 30 31  1  0
 27 32  1  0
 26 33  1  0
 25 34  1  0
 23 35  1  0
 23 36  1  0
 37 22  1  1
 37 38  1  0
 38 39  1  0
 39 40  1  0
 40 41  1  0
 41 42  1  0
 42 43  1  0
 42 44  1  0
 41 45  1  0
 41 46  1  0
 40 47  1  0
 39 48  1  0
 48 49  1  0
 49 50  1  0
 49 51  1  0
 48 52  1  0
 52 53  1  0
 52 54  1  0
 48 55  1  6
 39 56  1  6
 38 57  1  0
 38 58  1  0
 13  4  1  0
 30 24  1  0
 49 37  1  0
 13  8  1  0
 52 37  1  0
 42 40  1  0
M  CHG  1  39   1
M  END
>  <cnnaffinities>  (45) 
[6.06508]

>  <score>  (45) 
6.06508

>  <index>  (45) 
47

>  <Smiles>  (45) 
O=C(C(c1c(nc(c2c(c(c(c(c12)[H])[H])[H])[H])[H])[H])([H])[H])N(C(c1c(c(c(c(Cl)c1[H])[H])[H])[H])([H])[H])[C@]12C([N@@+](C3(C(C3([H])[H])([H])[H])[H])([C@](C1([H])[H])(C2([H])[H])[H])[H])([H])[H]

>  <h>  (45) 
<NA>

>  <Training>  (45) 
True

>  <Success>  (45) 
True

>  <enamine_searched>  (45) 
False

>  <enamine_id>  (45) 
nan

$$$$

     RDKit          3D

 46 48  0  0  0  0  0  0  0  0999 V2000
   -8.8876   -7.7361  -25.5740 C   0  0  0  0  0  0  0  0  0  0  0  0
   -9.4363   -6.3122  -25.4754 C   0  0  0  0  0  0  0  0  0  0  0  0
   -9.6006   -5.8108  -26.9153 C   0  0  0  0  0  0  0  0  0  0  0  0
   -9.8784   -4.7577  -27.0467 H   0  0  0  0  0  0  0  0  0  0  0  0
   -8.6655   -5.9750  -27.4602 H   0  0  0  0  0  0  0  0  0  0  0  0
  -10.3548   -6.4124  -27.4314 H   0  0  0  0  0  0  0  0  0  0  0  0
   -8.5240   -5.3889  -24.6376 C   0  0  0  0  0  0  0  0  0  0  0  0
   -8.0582   -5.9637  -23.2966 C   0  0  0  0  0  0  0  0  0  0  0  0
   -7.0568   -5.0145  -22.6454 C   0  0  0  0  0  0  0  0  0  0  0  0
   -7.5714   -3.6539  -22.5426 N   0  0  0  0  0  0  0  0  0  0  0  0
   -6.7822   -2.7920  -21.8242 C   0  0  0  0  0  0  0  0  0  0  0  0
   -5.6116   -3.0621  -21.6146 O   0  0  0  0  0  0  0  0  0  0  0  0
   -7.4130   -1.4951  -21.2720 C   0  0  0  0  0  0  0  0  0  0  0  0
   -6.5787   -0.8462  -20.1899 C   0  0  0  0  0  0  0  0  0  0  0  0
   -6.8828   -1.0519  -18.8672 C   0  0  0  0  0  0  0  0  0  0  0  0
   -6.2035   -0.5398  -17.8067 N   0  0  0  0  0  0  0  0  0  0  0  0
   -5.1662    0.2149  -18.0737 C   0  0  0  0  0  0  0  0  0  0  0  0
   -4.7238    0.5167  -19.3892 C   0  0  0  0  0  0  0  0  0  0  0  0
   -3.5985    1.3448  -19.6244 C   0  0  0  0  0  0  0  0  0  0  0  0
   -3.1941    1.6221  -20.9000 C   0  0  0  0  0  0  0  0  0  0  0  0
   -3.9024    1.0790  -21.9978 C   0  0  0  0  0  0  0  0  0  0  0  0
   -4.9965    0.2710  -21.7929 C   0  0  0  0  0  0  0  0  0  0  0  0
   -5.4426   -0.0290  -20.4807 C   0  0  0  0  0  0  0  0  0  0  0  0
   -5.5316   -0.1497  -22.6385 H   0  0  0  0  0  0  0  0  0  0  0  0
   -3.5832    1.3146  -23.0076 H   0  0  0  0  0  0  0  0  0  0  0  0
   -2.3382    2.2685  -21.0755 H   0  0  0  0  0  0  0  0  0  0  0  0
   -3.0865    1.7648  -18.7605 H   0  0  0  0  0  0  0  0  0  0  0  0
   -4.6219    0.6257  -17.2222 H   0  0  0  0  0  0  0  0  0  0  0  0
   -7.7332   -1.6710  -18.5849 H   0  0  0  0  0  0  0  0  0  0  0  0
   -8.4050   -1.7301  -20.8609 H   0  0  0  0  0  0  0  0  0  0  0  0
   -7.5920   -0.7989  -22.1048 H   0  0  0  0  0  0  0  0  0  0  0  0
   -8.9325   -3.4192  -22.9827 C   0  0  0  0  0  0  0  0  0  0  0  0
   -9.1776   -4.0088  -24.3845 C   0  0  0  0  0  0  0  0  0  0  0  0
  -10.2653   -4.0943  -24.4873 H   0  0  0  0  0  0  0  0  0  0  0  0
   -8.8120   -3.3124  -25.1458 H   0  0  0  0  0  0  0  0  0  0  0  0
   -9.6587   -3.8552  -22.2728 H   0  0  0  0  0  0  0  0  0  0  0  0
   -9.0948   -2.3389  -23.0082 H   0  0  0  0  0  0  0  0  0  0  0  0
   -6.1031   -4.9702  -23.1893 H   0  0  0  0  0  0  0  0  0  0  0  0
   -6.8154   -5.3412  -21.6355 H   0  0  0  0  0  0  0  0  0  0  0  0
   -7.5578   -6.9279  -23.4311 H   0  0  0  0  0  0  0  0  0  0  0  0
   -8.9149   -6.1424  -22.6306 H   0  0  0  0  0  0  0  0  0  0  0  0
   -7.6062   -5.2592  -25.2371 H   0  0  0  0  0  0  0  0  0  0  0  0
  -10.4195   -6.3569  -24.9809 H   0  0  0  0  0  0  0  0  0  0  0  0
   -8.8947   -8.2327  -24.6040 H   0  0  0  0  0  0  0  0  0  0  0  0
   -7.8550   -7.7415  -25.9531 H   0  0  0  0  0  0  0  0  0  0  0  0
   -9.4833   -8.3380  -26.2716 H   0  0  0  0  0  0  0  0  0  0  0  0
  1  2  1  0
  2  3  1  0
  3  4  1  0
  3  5  1  0
  3  6  1  0
  2  7  1  0
  7  8  1  0
  8  9  1  0
  9 10  1  0
 10 11  1  0
 11 12  2  0
 11 13  1  0
 13 14  1  0
 14 15  2  0
 15 16  1  0
 16 17  2  0
 17 18  1  0
 18 19  2  0
 19 20  1  0
 20 21  2  0
 21 22  1  0
 22 23  2  0
 22 24  1  0
 21 25  1  0
 20 26  1  0
 19 27  1  0
 17 28  1  0
 15 29  1  0
 13 30  1  0
 13 31  1  0
 10 32  1  0
 32 33  1  0
 33 34  1  0
 33 35  1  0
 32 36  1  0
 32 37  1  0
  9 38  1  0
  9 39  1  0
  8 40  1  0
  8 41  1  0
  7 42  1  0
  2 43  1  0
  1 44  1  0
  1 45  1  0
  1 46  1  0
 33  7  1  0
 23 14  1  0
 23 18  1  0
M  END
>  <cnnaffinities>  (46) 
[4.80441, 4.80913, 4.80883, 4.71245, 4.71241, 4.808, 4.70852, 4.6653, 4.66605, 4.66655, 4.91936, 4.9193, 4.91923, 4.79185, 4.79187, 5.17765, 5.17754, 5.17793]

>  <score>  (46) 
4.80441

>  <index>  (46) 
48

>  <Smiles>  (46) 
C(C(C([H])([H])[H])(C1(C(C(N(C(=O)C(c2c(nc(c3c(c(c(c(c23)[H])[H])[H])[H])[H])[H])([H])[H])C(C1([H])[H])([H])[H])([H])[H])([H])[H])[H])[H])([H])([H])[H]

>  <h>  (46) 
<NA>

>  <Training>  (46) 
True

>  <Success>  (46) 
True

>  <enamine_searched>  (46) 
False

>  <enamine_id>  (46) 
nan

$$$$

     RDKit          3D

 67 72  0  0  0  0  0  0  0  0999 V2000
   -7.7521   -6.0527  -26.7594 C   0  0  0  0  0  0  0  0  0  0  0  0
   -8.0817   -4.6558  -26.9869 N   0  0  0  0  0  0  0  0  0  0  0  0
   -7.1341   -3.7179  -26.7267 C   0  0  0  0  0  0  0  0  0  0  0  0
   -6.0012   -4.0009  -26.3612 O   0  0  0  0  0  0  0  0  0  0  0  0
   -7.5910   -2.2688  -26.8608 C   0  0  0  0  0  0  0  0  0  0  0  0
   -8.4437   -1.9144  -25.7380 N   0  0  0  0  0  0  0  0  0  0  0  0
   -7.8579   -1.3603  -24.5205 C   0  0  0  0  0  0  0  0  0  0  0  0
   -8.6917   -1.6214  -23.2286 C   0  0  2  0  0  0  0  0  0  0  0  0
   -8.1231   -0.6810  -22.1491 C   0  0  0  0  0  0  0  0  0  0  0  0
   -8.2396    0.5246  -22.1116 O   0  0  0  0  0  0  0  0  0  0  0  0
   -7.4089   -1.4203  -21.2250 N   0  0  0  0  0  0  0  0  0  0  0  0
   -6.6137   -0.8273  -20.2111 C   0  0  0  0  0  0  0  0  0  0  0  0
   -6.9140   -1.0690  -18.8940 C   0  0  0  0  0  0  0  0  0  0  0  0
   -6.2398   -0.5566  -17.8354 N   0  0  0  0  0  0  0  0  0  0  0  0
   -5.2063    0.2070  -18.0982 C   0  0  0  0  0  0  0  0  0  0  0  0
   -4.7608    0.5131  -19.4139 C   0  0  0  0  0  0  0  0  0  0  0  0
   -3.6240    1.3354  -19.6304 C   0  0  0  0  0  0  0  0  0  0  0  0
   -3.1963    1.6064  -20.8995 C   0  0  0  0  0  0  0  0  0  0  0  0
   -3.8825    1.0640  -22.0088 C   0  0  0  0  0  0  0  0  0  0  0  0
   -4.9860    0.2705  -21.8252 C   0  0  0  0  0  0  0  0  0  0  0  0
   -5.4687   -0.0180  -20.5158 C   0  0  0  0  0  0  0  0  0  0  0  0
   -5.5056   -0.1290  -22.6904 H   0  0  0  0  0  0  0  0  0  0  0  0
   -3.5335    1.2845  -23.0130 H   0  0  0  0  0  0  0  0  0  0  0  0
   -2.3304    2.2410  -21.0626 H   0  0  0  0  0  0  0  0  0  0  0  0
   -3.1146    1.7492  -18.7640 H   0  0  0  0  0  0  0  0  0  0  0  0
   -4.6527    0.6164  -17.2514 H   0  0  0  0  0  0  0  0  0  0  0  0
   -7.7671   -1.6982  -18.6456 H   0  0  0  0  0  0  0  0  0  0  0  0
   -7.3645   -2.8419  -21.5125 C   0  0  0  0  0  0  0  0  0  0  0  0
   -8.5063   -3.0175  -22.5281 C   0  0  2  0  0  0  0  0  0  0  0  0
   -8.3157   -4.1982  -23.4832 C   0  0  0  0  0  0  0  0  0  0  0  0
   -8.2724   -5.4752  -22.8057 N   0  0  0  0  0  0  0  0  0  0  0  0
   -7.1578   -6.2773  -22.7264 C   0  0  0  0  0  0  0  0  0  0  0  0
   -7.0577   -7.5692  -22.2883 C   0  0  0  0  0  0  0  0  0  0  0  0
   -5.7841   -8.0905  -22.2244 N   0  0  0  0  0  0  0  0  0  0  0  0
   -4.9086   -7.2288  -22.6290 C   0  0  0  0  0  0  0  0  0  0  0  0
   -3.4345   -7.4214  -22.6846 C   0  0  0  0  0  0  0  0  0  0  0  0
   -3.0971   -7.5579  -23.7191 H   0  0  0  0  0  0  0  0  0  0  0  0
   -3.1381   -8.2974  -22.1077 H   0  0  0  0  0  0  0  0  0  0  0  0
   -2.9415   -6.5363  -22.2775 H   0  0  0  0  0  0  0  0  0  0  0  0
   -5.5604   -5.6965  -23.1493 S   0  0  0  0  0  0  0  0  0  0  0  0
   -7.8958   -8.1985  -22.0054 H   0  0  0  0  0  0  0  0  0  0  0  0
   -9.1313   -5.8566  -22.4319 H   0  0  0  0  0  0  0  0  0  0  0  0
   -7.3734   -4.0830  -24.0281 H   0  0  0  0  0  0  0  0  0  0  0  0
   -9.1427   -4.1832  -24.2044 H   0  0  0  0  0  0  0  0  0  0  0  0
   -9.4299   -3.1942  -21.9524 H   0  0  0  0  0  0  0  0  0  0  0  0
   -6.3815   -3.1380  -21.9156 H   0  0  0  0  0  0  0  0  0  0  0  0
   -7.5234   -3.4163  -20.5932 H   0  0  0  0  0  0  0  0  0  0  0  0
  -10.1450   -1.3205  -23.5644 C   0  0  0  0  0  0  0  0  0  0  0  0
  -11.0776   -1.0701  -22.5541 C   0  0  0  0  0  0  0  0  0  0  0  0
  -12.4306   -0.9848  -22.8628 C   0  0  0  0  0  0  0  0  0  0  0  0
  -13.6389   -1.1364  -21.6271 Cl  0  0  0  0  0  0  0  0  0  0  0  0
  -12.8826   -0.9371  -24.1810 C   0  0  0  0  0  0  0  0  0  0  0  0
  -11.9618   -1.1481  -25.1789 C   0  0  0  0  0  0  0  0  0  0  0  0
  -10.6310   -1.4097  -24.8713 C   0  0  0  0  0  0  0  0  0  0  0  0
   -9.7817   -1.9150  -25.9724 C   0  0  0  0  0  0  0  0  0  0  0  0
  -10.2582   -2.3407  -27.0255 O   0  0  0  0  0  0  0  0  0  0  0  0
  -12.2595   -1.2310  -26.2182 H   0  0  0  0  0  0  0  0  0  0  0  0
  -13.9374   -0.8074  -24.4044 H   0  0  0  0  0  0  0  0  0  0  0  0
  -10.7234   -0.9601  -21.5378 H   0  0  0  0  0  0  0  0  0  0  0  0
   -7.7812   -0.2692  -24.6291 H   0  0  0  0  0  0  0  0  0  0  0  0
   -6.8427   -1.7675  -24.4216 H   0  0  0  0  0  0  0  0  0  0  0  0
   -6.7230   -1.6071  -26.8991 H   0  0  0  0  0  0  0  0  0  0  0  0
   -8.1859   -2.1390  -27.7696 H   0  0  0  0  0  0  0  0  0  0  0  0
   -9.0277   -4.3799  -27.2233 H   0  0  0  0  0  0  0  0  0  0  0  0
   -6.9312   -6.3488  -27.4219 H   0  0  0  0  0  0  0  0  0  0  0  0
   -7.4408   -6.2141  -25.7145 H   0  0  0  0  0  0  0  0  0  0  0  0
   -8.6236   -6.6741  -26.9775 H   0  0  0  0  0  0  0  0  0  0  0  0
  1  2  1  0
  2  3  1  0
  3  4  2  0
  3  5  1  0
  5  6  1  0
  6  7  1  0
  8  7  1  6
  8  9  1  0
  9 10  2  0
  9 11  1  0
 11 12  1  0
 12 13  2  0
 13 14  1  0
 14 15  2  0
 15 16  1  0
 16 17  2  0
 17 18  1  0
 18 19  2  0
 19 20  1  0
 20 21  2  0
 20 22  1  0
 19 23  1  0
 18 24  1  0
 17 25  1  0
 15 26  1  0
 13 27  1  0
 11 28  1  0
 28 29  1  0
 29 30  1  0
 30 31  1  0
 31 32  1  0
 32 33  2  0
 33 34  1  0
 34 35  2  0
 35 36  1  0
 36 37  1  0
 36 38  1  0
 36 39  1  0
 35 40  1  0
 33 41  1  0
 31 42  1  0
 30 43  1  0
 30 44  1  0
 29 45  1  1
 28 46  1  0
 28 47  1  0
  8 48  1  0
 48 49  2  0
 49 50  1  0
 50 51  1  0
 50 52  2  0
 52 53  1  0
 53 54  2  0
 54 55  1  0
 55 56  2  0
 53 57  1  0
 52 58  1  0
 49 59  1  0
  7 60  1  0
  7 61  1  0
  5 62  1  0
  5 63  1  0
  2 64  1  0
  1 65  1  0
  1 66  1  0
  1 67  1  0
 55  6  1  0
 29  8  1  0
 40 32  1  0
 54 48  1  0
 21 12  1  0
 21 16  1  0
M  END
>  <cnnaffinities>  (47) 
[6.30698, 6.72314, 6.64627]

>  <score>  (47) 
6.30698

>  <index>  (47) 
49

>  <Smiles>  (47) 
C(N(C(=O)C(N1C([C@@]2(C(=O)N(c3c(nc(c4c(c(c(c(c34)[H])[H])[H])[H])[H])[H])C([C@@]2(C(N(c2c(nc(C([H])([H])[H])s2)[H])[H])([H])[H])[H])([H])[H])c2c(c(Cl)c(c(c2C1=O)[H])[H])[H])([H])[H])([H])[H])[H])([H])([H])[H]

>  <h>  (47) 
<NA>

>  <Training>  (47) 
True

>  <Success>  (47) 
True

>  <enamine_searched>  (47) 
False

>  <enamine_id>  (47) 
nan

$$$$

     RDKit          3D

 66 70  0  0  0  0  0  0  0  0999 V2000
   -7.4515    3.3580  -21.8249 C   0  0  0  0  0  0  0  0  0  0  0  0
   -8.3569    2.8815  -22.8521 N   0  0  0  0  0  0  0  0  0  0  0  0
   -7.8393    2.1566  -23.8702 C   0  0  0  0  0  0  0  0  0  0  0  0
   -6.6302    2.0124  -24.0199 O   0  0  0  0  0  0  0  0  0  0  0  0
   -8.8441    1.5408  -24.8505 C   0  0  0  0  0  0  0  0  0  0  0  0
   -9.5399    0.3835  -24.3190 N   0  0  0  0  0  0  0  0  0  0  0  0
   -8.8053   -0.8616  -24.1799 C   0  0  0  0  0  0  0  0  0  0  0  0
   -9.1220   -1.5666  -22.8383 C   0  0  2  0  0  0  0  0  0  0  0  0
   -8.5391   -0.7493  -21.6532 C   0  0  0  0  0  0  0  0  0  0  0  0
   -8.9779    0.2790  -21.1825 O   0  0  0  0  0  0  0  0  0  0  0  0
   -7.4031   -1.3846  -21.2004 N   0  0  0  0  0  0  0  0  0  0  0  0
   -6.6057   -0.8088  -20.1728 C   0  0  0  0  0  0  0  0  0  0  0  0
   -6.9110   -1.0383  -18.8558 C   0  0  0  0  0  0  0  0  0  0  0  0
   -6.2078   -0.5433  -17.8061 N   0  0  0  0  0  0  0  0  0  0  0  0
   -5.1684    0.2099  -18.0769 C   0  0  0  0  0  0  0  0  0  0  0  0
   -4.7287    0.5274  -19.3929 C   0  0  0  0  0  0  0  0  0  0  0  0
   -3.6005    1.3581  -19.6415 C   0  0  0  0  0  0  0  0  0  0  0  0
   -3.2144    1.6469  -20.9209 C   0  0  0  0  0  0  0  0  0  0  0  0
   -3.9383    1.1191  -22.0147 C   0  0  0  0  0  0  0  0  0  0  0  0
   -5.0326    0.3142  -21.7999 C   0  0  0  0  0  0  0  0  0  0  0  0
   -5.4644    0.0000  -20.4842 C   0  0  0  0  0  0  0  0  0  0  0  0
   -5.5948   -0.0693  -22.6468 H   0  0  0  0  0  0  0  0  0  0  0  0
   -3.6441    1.3625  -23.0293 H   0  0  0  0  0  0  0  0  0  0  0  0
   -2.3614    2.2951  -21.1016 H   0  0  0  0  0  0  0  0  0  0  0  0
   -3.0721    1.7723  -18.7859 H   0  0  0  0  0  0  0  0  0  0  0  0
   -4.6182    0.6144  -17.2265 H   0  0  0  0  0  0  0  0  0  0  0  0
   -7.7600   -1.6661  -18.5967 H   0  0  0  0  0  0  0  0  0  0  0  0
   -7.0769   -2.6093  -21.9085 C   0  0  0  0  0  0  0  0  0  0  0  0
   -8.3659   -2.9281  -22.6982 C   0  0  2  0  0  0  0  0  0  0  0  0
   -8.0846   -3.6762  -24.0007 C   0  0  0  0  0  0  0  0  0  0  0  0
   -7.4667   -4.9170  -23.7078 O   0  0  0  0  0  0  0  0  0  0  0  0
   -7.3028   -5.7627  -24.8502 C   0  0  0  0  0  0  0  0  0  0  0  0
   -8.4381   -6.7860  -24.9204 C   0  0  0  0  0  0  0  0  0  0  0  0
   -8.4375   -7.4071  -24.0183 H   0  0  0  0  0  0  0  0  0  0  0  0
   -8.3137   -7.4383  -25.7936 H   0  0  0  0  0  0  0  0  0  0  0  0
   -9.4140   -6.2934  -25.0008 H   0  0  0  0  0  0  0  0  0  0  0  0
   -5.9399   -6.4429  -24.7576 C   0  0  0  0  0  0  0  0  0  0  0  0
   -5.8880   -7.0661  -23.8592 H   0  0  0  0  0  0  0  0  0  0  0  0
   -5.7715   -7.0810  -25.6338 H   0  0  0  0  0  0  0  0  0  0  0  0
   -5.1409   -5.6973  -24.7126 H   0  0  0  0  0  0  0  0  0  0  0  0
   -7.3282   -5.1355  -25.7595 H   0  0  0  0  0  0  0  0  0  0  0  0
   -9.0199   -3.8349  -24.5628 H   0  0  0  0  0  0  0  0  0  0  0  0
   -7.4133   -3.0833  -24.6454 H   0  0  0  0  0  0  0  0  0  0  0  0
   -8.9764   -3.5944  -22.0857 H   0  0  0  0  0  0  0  0  0  0  0  0
   -6.8058   -3.4016  -21.2024 H   0  0  0  0  0  0  0  0  0  0  0  0
   -6.2174   -2.4630  -22.5809 H   0  0  0  0  0  0  0  0  0  0  0  0
  -10.6325   -1.6249  -22.7110 C   0  0  0  0  0  0  0  0  0  0  0  0
  -11.2099   -2.5158  -21.8096 C   0  0  0  0  0  0  0  0  0  0  0  0
  -12.5733   -2.5292  -21.6269 C   0  0  0  0  0  0  0  0  0  0  0  0
  -13.0564   -3.3619  -20.6912 F   0  0  0  0  0  0  0  0  0  0  0  0
  -13.4292   -1.6906  -22.3355 C   0  0  0  0  0  0  0  0  0  0  0  0
  -12.8597   -0.7695  -23.1944 C   0  0  0  0  0  0  0  0  0  0  0  0
  -11.4744   -0.7054  -23.3574 C   0  0  0  0  0  0  0  0  0  0  0  0
  -10.9025    0.4211  -24.1640 C   0  0  0  0  0  0  0  0  0  0  0  0
  -11.5994    1.3178  -24.6171 O   0  0  0  0  0  0  0  0  0  0  0  0
  -13.4614   -0.0491  -23.7392 H   0  0  0  0  0  0  0  0  0  0  0  0
  -14.5020   -1.7439  -22.1913 H   0  0  0  0  0  0  0  0  0  0  0  0
  -10.6218   -3.1944  -21.2061 H   0  0  0  0  0  0  0  0  0  0  0  0
   -9.0512   -1.5466  -25.0081 H   0  0  0  0  0  0  0  0  0  0  0  0
   -7.7412   -0.6127  -24.2215 H   0  0  0  0  0  0  0  0  0  0  0  0
   -8.2553    1.2716  -25.7351 H   0  0  0  0  0  0  0  0  0  0  0  0
   -9.6278    2.2471  -25.1398 H   0  0  0  0  0  0  0  0  0  0  0  0
   -9.3519    2.8437  -22.6689 H   0  0  0  0  0  0  0  0  0  0  0  0
   -8.0419    3.8633  -21.0612 H   0  0  0  0  0  0  0  0  0  0  0  0
   -6.8772    2.5143  -21.4042 H   0  0  0  0  0  0  0  0  0  0  0  0
   -6.7386    4.0833  -22.2350 H   0  0  0  0  0  0  0  0  0  0  0  0
  1  2  1  0
  2  3  1  0
  3  4  2  0
  3  5  1  0
  5  6  1  0
  6  7  1  0
  8  7  1  6
  8  9  1  0
  9 10  2  0
  9 11  1  0
 11 12  1  0
 12 13  2  0
 13 14  1  0
 14 15  2  0
 15 16  1  0
 16 17  2  0
 17 18  1  0
 18 19  2  0
 19 20  1  0
 20 21  2  0
 20 22  1  0
 19 23  1  0
 18 24  1  0
 17 25  1  0
 15 26  1  0
 13 27  1  0
 11 28  1  0
 28 29  1  0
 29 30  1  0
 30 31  1  0
 31 32  1  0
 32 33  1  0
 33 34  1  0
 33 35  1  0
 33 36  1  0
 32 37  1  0
 37 38  1  0
 37 39  1  0
 37 40  1  0
 32 41  1  0
 30 42  1  0
 30 43  1  0
 29 44  1  1
 28 45  1  0
 28 46  1  0
  8 47  1  0
 47 48  2  0
 48 49  1  0
 49 50  1  0
 49 51  2  0
 51 52  1  0
 52 53  2  0
 53 54  1  0
 54 55  2  0
 52 56  1  0
 51 57  1  0
 48 58  1  0
  7 59  1  0
  7 60  1  0
  5 61  1  0
  5 62  1  0
  2 63  1  0
  1 64  1  0
  1 65  1  0
  1 66  1  0
 54  6  1  0
 29  8  1  0
 53 47  1  0
 21 12  1  0
 21 16  1  0
M  END
>  <cnnaffinities>  (48) 
[6.40171, 6.1179, 6.28087, 6.22566]

>  <score>  (48) 
6.40171

>  <index>  (48) 
50

>  <Smiles>  (48) 
C(N(C(=O)C(N1C([C@@]2(C(=O)N(c3c(nc(c4c(c(c(c(c34)[H])[H])[H])[H])[H])[H])C([C@@]2(C(OC(C([H])([H])[H])(C([H])([H])[H])[H])([H])[H])[H])([H])[H])c2c(c(F)c(c(c2C1=O)[H])[H])[H])([H])[H])([H])[H])[H])([H])([H])[H]

>  <h>  (48) 
<NA>

>  <Training>  (48) 
True

>  <Success>  (48) 
True

>  <enamine_searched>  (48) 
False

>  <enamine_id>  (48) 
nan

$$$$

     RDKit          3D

 50 52  0  0  0  0  0  0  0  0999 V2000
  -11.5830   -0.2623  -25.0501 C   0  0  0  0  0  0  0  0  0  0  0  0
  -10.7925   -0.0086  -24.0111 C   0  0  0  0  0  0  0  0  0  0  0  0
  -10.6875   -0.9482  -22.8220 C   0  0  0  0  0  0  0  0  0  0  0  0
   -9.3331   -1.4336  -22.5707 N   0  0  0  0  0  0  0  0  0  0  0  0
   -8.6456   -0.8414  -21.5246 C   0  0  0  0  0  0  0  0  0  0  0  0
   -9.1463    0.0324  -20.8193 O   0  0  0  0  0  0  0  0  0  0  0  0
   -7.3940   -1.3274  -21.2663 N   0  0  0  0  0  0  0  0  0  0  0  0
   -6.6134   -0.8058  -20.2063 C   0  0  0  0  0  0  0  0  0  0  0  0
   -6.9415   -1.0466  -18.8929 C   0  0  0  0  0  0  0  0  0  0  0  0
   -6.2469   -0.5637  -17.8351 N   0  0  0  0  0  0  0  0  0  0  0  0
   -5.2068    0.1945  -18.0975 C   0  0  0  0  0  0  0  0  0  0  0  0
   -4.7566    0.5183  -19.4102 C   0  0  0  0  0  0  0  0  0  0  0  0
   -3.6369    1.3577  -19.6482 C   0  0  0  0  0  0  0  0  0  0  0  0
   -3.2548    1.6596  -20.9288 C   0  0  0  0  0  0  0  0  0  0  0  0
   -3.9700    1.1453  -22.0325 C   0  0  0  0  0  0  0  0  0  0  0  0
   -5.0652    0.3378  -21.8293 C   0  0  0  0  0  0  0  0  0  0  0  0
   -5.4742   -0.0038  -20.5095 C   0  0  0  0  0  0  0  0  0  0  0  0
   -5.6289   -0.0332  -22.6834 H   0  0  0  0  0  0  0  0  0  0  0  0
   -3.6584    1.3984  -23.0436 H   0  0  0  0  0  0  0  0  0  0  0  0
   -2.3995    2.3062  -21.1026 H   0  0  0  0  0  0  0  0  0  0  0  0
   -3.1084    1.7616  -18.7887 H   0  0  0  0  0  0  0  0  0  0  0  0
   -4.6513    0.5942  -17.2492 H   0  0  0  0  0  0  0  0  0  0  0  0
   -7.8048   -1.6678  -18.6627 H   0  0  0  0  0  0  0  0  0  0  0  0
   -6.9728   -1.9501  -21.9398 H   0  0  0  0  0  0  0  0  0  0  0  0
   -8.7352   -2.2182  -23.6103 C   0  0  0  0  0  0  0  0  0  0  0  0
   -9.1726   -3.5197  -23.8605 C   0  0  0  0  0  0  0  0  0  0  0  0
   -8.5779   -4.2530  -24.8819 C   0  0  0  0  0  0  0  0  0  0  0  0
   -7.5858   -3.6966  -25.6809 C   0  0  0  0  0  0  0  0  0  0  0  0
   -7.1979   -2.3863  -25.4451 C   0  0  0  0  0  0  0  0  0  0  0  0
   -5.9645   -1.6641  -26.4333 Cl  0  0  0  0  0  0  0  0  0  0  0  0
   -7.7637   -1.6381  -24.4238 C   0  0  0  0  0  0  0  0  0  0  0  0
   -7.4808   -0.5982  -24.2736 H   0  0  0  0  0  0  0  0  0  0  0  0
   -7.1116   -4.2668  -26.4717 H   0  0  0  0  0  0  0  0  0  0  0  0
   -8.9008   -5.2727  -25.0637 H   0  0  0  0  0  0  0  0  0  0  0  0
   -9.9761   -3.9506  -23.2624 H   0  0  0  0  0  0  0  0  0  0  0  0
  -11.3286   -1.8140  -23.0126 H   0  0  0  0  0  0  0  0  0  0  0  0
  -11.0210   -0.4761  -21.8978 H   0  0  0  0  0  0  0  0  0  0  0  0
   -9.8973    1.1947  -24.1415 C   0  0  0  0  0  0  0  0  0  0  0  0
   -9.6165    1.6565  -25.2441 O   0  0  0  0  0  0  0  0  0  0  0  0
   -9.3895    1.7388  -23.0085 N   0  0  0  0  0  0  0  0  0  0  0  0
   -8.1549    2.4911  -23.1402 C   0  0  0  0  0  0  0  0  0  0  0  0
   -7.5359    2.7974  -21.7935 C   0  0  0  0  0  0  0  0  0  0  0  0
   -7.5585    1.9223  -21.1371 H   0  0  0  0  0  0  0  0  0  0  0  0
   -6.4903    3.0999  -21.8933 H   0  0  0  0  0  0  0  0  0  0  0  0
   -8.0673    3.5991  -21.2829 H   0  0  0  0  0  0  0  0  0  0  0  0
   -7.4309    1.8991  -23.7113 H   0  0  0  0  0  0  0  0  0  0  0  0
   -8.3598    3.3905  -23.7269 H   0  0  0  0  0  0  0  0  0  0  0  0
   -9.5918    1.3417  -22.1021 H   0  0  0  0  0  0  0  0  0  0  0  0
  -11.5900    0.3985  -25.9127 H   0  0  0  0  0  0  0  0  0  0  0  0
  -12.2516   -1.1182  -25.0483 H   0  0  0  0  0  0  0  0  0  0  0  0
  1  2  2  0
  2  3  1  0
  3  4  1  0
  4  5  1  0
  5  6  2  0
  5  7  1  0
  7  8  1  0
  8  9  2  0
  9 10  1  0
 10 11  2  0
 11 12  1  0
 12 13  2  0
 13 14  1  0
 14 15  2  0
 15 16  1  0
 16 17  2  0
 16 18  1  0
 15 19  1  0
 14 20  1  0
 13 21  1  0
 11 22  1  0
  9 23  1  0
  7 24  1  0
  4 25  1  0
 25 26  2  0
 26 27  1  0
 27 28  2  0
 28 29  1  0
 29 30  1  0
 29 31  2  0
 31 32  1  0
 28 33  1  0
 27 34  1  0
 26 35  1  0
  3 36  1  0
  3 37  1  0
  2 38  1  0
 38 39  2  0
 38 40  1  0
 40 41  1  0
 41 42  1  0
 42 43  1  0
 42 44  1  0
 42 45  1  0
 41 46  1  0
 41 47  1  0
 40 48  1  0
  1 49  1  0
  1 50  1  0
 17  8  1  0
 31 25  1  0
 17 12  1  0
M  END
>  <cnnaffinities>  (49) 
[6.01343]

>  <score>  (49) 
6.01343

>  <index>  (49) 
51

>  <Smiles>  (49) 
C(=C(C(N(C(=O)N(c1c(nc(c2c(c(c(c(c12)[H])[H])[H])[H])[H])[H])[H])c1c(c(c(c(Cl)c1[H])[H])[H])[H])([H])[H])C(=O)N(C(C([H])([H])[H])([H])[H])[H])([H])[H]

>  <h>  (49) 
<NA>

>  <Training>  (49) 
True

>  <Success>  (49) 
True

>  <enamine_searched>  (49) 
False

>  <enamine_id>  (49) 
nan

$$$$

     RDKit          3D

 57 60  0  0  0  0  0  0  0  0999 V2000
   -2.3328   -1.1826  -28.0583 C   0  0  0  0  0  0  0  0  0  0  0  0
   -3.4129   -0.1258  -27.8110 C   0  0  0  0  0  0  0  0  0  0  0  0
   -4.3379   -0.5215  -26.6596 C   0  0  0  0  0  0  0  0  0  0  0  0
   -4.0846   -0.2106  -25.5053 O   0  0  0  0  0  0  0  0  0  0  0  0
   -5.4458   -1.2821  -26.9797 N   0  0  0  0  0  0  0  0  0  0  0  0
   -6.4864   -1.6045  -26.0675 C   0  0  0  0  0  0  0  0  0  0  0  0
   -7.1296   -2.8452  -26.1532 C   0  0  0  0  0  0  0  0  0  0  0  0
   -8.1423   -3.1525  -25.2535 C   0  0  0  0  0  0  0  0  0  0  0  0
   -8.5436   -2.2506  -24.2754 C   0  0  0  0  0  0  0  0  0  0  0  0
   -7.9094   -1.0064  -24.2010 C   0  0  0  0  0  0  0  0  0  0  0  0
   -8.2909   -0.0490  -23.2063 N   0  0  0  0  0  0  0  0  0  0  0  0
   -8.9353    1.1935  -23.6528 C   0  0  0  0  0  0  0  0  0  0  0  0
  -10.3827    1.0203  -24.0511 C   0  0  0  0  0  0  0  0  0  0  0  0
  -10.6968    0.5275  -25.3128 C   0  0  0  0  0  0  0  0  0  0  0  0
  -12.0131    0.2700  -25.6623 C   0  0  0  0  0  0  0  0  0  0  0  0
  -13.0543    0.5514  -24.7792 C   0  0  0  0  0  0  0  0  0  0  0  0
  -12.7510    1.0621  -23.5202 C   0  0  0  0  0  0  0  0  0  0  0  0
  -11.4243    1.2921  -23.1636 C   0  0  0  0  0  0  0  0  0  0  0  0
  -11.1846    1.6632  -22.1738 H   0  0  0  0  0  0  0  0  0  0  0  0
  -13.5473    1.2671  -22.8067 H   0  0  0  0  0  0  0  0  0  0  0  0
  -14.0901    0.3629  -25.0527 H   0  0  0  0  0  0  0  0  0  0  0  0
  -12.1636   -0.2106  -26.6193 H   0  0  0  0  0  0  0  0  0  0  0  0
   -9.9145    0.2964  -26.0318 H   0  0  0  0  0  0  0  0  0  0  0  0
   -8.8553    1.9308  -22.8502 H   0  0  0  0  0  0  0  0  0  0  0  0
   -8.3655    1.5579  -24.5144 H   0  0  0  0  0  0  0  0  0  0  0  0
   -8.3788   -0.3509  -21.8503 C   0  0  0  0  0  0  0  0  0  0  0  0
   -9.1463    0.2428  -21.1169 O   0  0  0  0  0  0  0  0  0  0  0  0
   -7.4274   -1.4093  -21.2735 C   0  0  0  0  0  0  0  0  0  0  0  0
   -6.5677   -0.8262  -20.1725 C   0  0  0  0  0  0  0  0  0  0  0  0
   -6.8761   -1.0389  -18.8547 C   0  0  0  0  0  0  0  0  0  0  0  0
   -6.1947   -0.5308  -17.7921 N   0  0  0  0  0  0  0  0  0  0  0  0
   -5.1557    0.2229  -18.0645 C   0  0  0  0  0  0  0  0  0  0  0  0
   -4.7175    0.5334  -19.3783 C   0  0  0  0  0  0  0  0  0  0  0  0
   -3.5961    1.3635  -19.6230 C   0  0  0  0  0  0  0  0  0  0  0  0
   -3.2080    1.6547  -20.9027 C   0  0  0  0  0  0  0  0  0  0  0  0
   -3.9273    1.1226  -21.9984 C   0  0  0  0  0  0  0  0  0  0  0  0
   -5.0180    0.3124  -21.7922 C   0  0  0  0  0  0  0  0  0  0  0  0
   -5.4430   -0.0042  -20.4751 C   0  0  0  0  0  0  0  0  0  0  0  0
   -5.5614   -0.0804  -22.6531 H   0  0  0  0  0  0  0  0  0  0  0  0
   -3.6195    1.3529  -23.0143 H   0  0  0  0  0  0  0  0  0  0  0  0
   -2.3512    2.3021  -21.0843 H   0  0  0  0  0  0  0  0  0  0  0  0
   -3.0612    1.7783  -18.7692 H   0  0  0  0  0  0  0  0  0  0  0  0
   -4.6017    0.6288  -17.2146 H   0  0  0  0  0  0  0  0  0  0  0  0
   -7.7298   -1.6606  -18.5838 H   0  0  0  0  0  0  0  0  0  0  0  0
   -8.0543   -2.2039  -20.8459 H   0  0  0  0  0  0  0  0  0  0  0  0
   -6.8142   -1.8643  -22.0600 H   0  0  0  0  0  0  0  0  0  0  0  0
   -6.9080   -0.6775  -25.1125 C   0  0  0  0  0  0  0  0  0  0  0  0
   -6.4414    0.2987  -25.0714 H   0  0  0  0  0  0  0  0  0  0  0  0
   -9.3447   -2.5019  -23.5802 H   0  0  0  0  0  0  0  0  0  0  0  0
   -8.6281   -4.1202  -25.3081 H   0  0  0  0  0  0  0  0  0  0  0  0
   -6.8350   -3.5783  -26.9019 H   0  0  0  0  0  0  0  0  0  0  0  0
   -5.4830   -1.7229  -27.8892 H   0  0  0  0  0  0  0  0  0  0  0  0
   -2.9353    0.8093  -27.5064 H   0  0  0  0  0  0  0  0  0  0  0  0
   -3.9669    0.0802  -28.7389 H   0  0  0  0  0  0  0  0  0  0  0  0
   -2.7835   -2.1348  -28.3578 H   0  0  0  0  0  0  0  0  0  0  0  0
   -1.6408   -0.8715  -28.8517 H   0  0  0  0  0  0  0  0  0  0  0  0
   -1.7407   -1.3578  -27.1524 H   0  0  0  0  0  0  0  0  0  0  0  0
  1  2  1  0
  2  3  1  0
  3  4  2  0
  3  5  1  0
  5  6  1  0
  6  7  2  0
  7  8  1  0
  8  9  2  0
  9 10  1  0
 10 11  1  0
 11 12  1  0
 12 13  1  0
 13 14  2  0
 14 15  1  0
 15 16  2  0
 16 17  1  0
 17 18  2  0
 18 19  1  0
 17 20  1  0
 16 21  1  0
 15 22  1  0
 14 23  1  0
 12 24  1  0
 12 25  1  0
 11 26  1  0
 26 27  2  0
 26 28  1  0
 28 29  1  0
 29 30  2  0
 30 31  1  0
 31 32  2  0
 32 33  1  0
 33 34  2  0
 34 35  1  0
 35 36  2  0
 36 37  1  0
 37 38  2  0
 37 39  1  0
 36 40  1  0
 35 41  1  0
 34 42  1  0
 32 43  1  0
 30 44  1  0
 28 45  1  0
 28 46  1  0
 10 47  2  0
 47 48  1  0
  9 49  1  0
  8 50  1  0
  7 51  1  0
  5 52  1  0
  2 53  1  0
  2 54  1  0
  1 55  1  0
  1 56  1  0
  1 57  1  0
 47  6  1  0
 18 13  1  0
 38 29  1  0
 38 33  1  0
M  END
>  <cnnaffinities>  (50) 
[5.57636, 5.57129, 5.71375, 5.4487, 5.71182, 5.44434, 6.13778, 5.6382, 5.63817, 5.35543, 5.35386]

>  <score>  (50) 
5.57636

>  <index>  (50) 
52

>  <Smiles>  (50) 
C(C(C(=O)N(c1c(c(c(c(N(C(c2c(c(c(c(c2[H])[H])[H])[H])[H])([H])[H])C(=O)C(c2c(nc(c3c(c(c(c(c23)[H])[H])[H])[H])[H])[H])([H])[H])c1[H])[H])[H])[H])[H])([H])[H])([H])([H])[H]

>  <h>  (50) 
<NA>

>  <Training>  (50) 
True

>  <Success>  (50) 
True

>  <enamine_searched>  (50) 
False

>  <enamine_id>  (50) 
nan

$$$$

     RDKit          3D

 59 63  0  0  0  0  0  0  0  0999 V2000
  -13.5411   -0.5006  -25.0103 C   0  0  0  0  0  0  0  0  0  0  0  0
  -14.2654   -1.7319  -24.4634 C   0  0  0  0  0  0  0  0  0  0  0  0
  -13.3131   -2.6641  -23.8653 N   0  0  0  0  0  0  0  0  0  0  0  0
  -12.8248   -2.4071  -22.6251 C   0  0  0  0  0  0  0  0  0  0  0  0
  -12.9779   -1.3220  -22.0825 O   0  0  0  0  0  0  0  0  0  0  0  0
  -12.0736   -3.5350  -21.9168 C   0  0  0  0  0  0  0  0  0  0  0  0
  -10.6698   -3.6555  -22.2987 N   0  0  0  0  0  0  0  0  0  0  0  0
   -9.6237   -3.0415  -21.4945 C   0  0  0  0  0  0  0  0  0  0  0  0
   -8.3489   -2.6649  -22.3166 C   0  0  2  0  0  0  0  0  0  0  0  0
   -7.2145   -2.4766  -21.2984 C   0  0  0  0  0  0  0  0  0  0  0  0
   -6.5240   -3.3422  -20.7985 O   0  0  0  0  0  0  0  0  0  0  0  0
   -7.1105   -1.1297  -21.0265 N   0  0  0  0  0  0  0  0  0  0  0  0
   -6.3169   -0.6353  -19.9673 C   0  0  0  0  0  0  0  0  0  0  0  0
   -6.6120   -0.9110  -18.6588 C   0  0  0  0  0  0  0  0  0  0  0  0
   -5.9735   -0.3380  -17.6063 N   0  0  0  0  0  0  0  0  0  0  0  0
   -4.9837    0.4871  -17.8627 C   0  0  0  0  0  0  0  0  0  0  0  0
   -4.5225    0.7987  -19.1776 C   0  0  0  0  0  0  0  0  0  0  0  0
   -3.3940    1.6249  -19.4453 C   0  0  0  0  0  0  0  0  0  0  0  0
   -2.9908    1.8475  -20.7353 C   0  0  0  0  0  0  0  0  0  0  0  0
   -3.6857    1.2661  -21.8210 C   0  0  0  0  0  0  0  0  0  0  0  0
   -4.7772    0.4718  -21.5886 C   0  0  0  0  0  0  0  0  0  0  0  0
   -5.2166    0.2235  -20.2634 C   0  0  0  0  0  0  0  0  0  0  0  0
   -5.3045   -0.0005  -22.4104 H   0  0  0  0  0  0  0  0  0  0  0  0
   -3.3585    1.4432  -22.8414 H   0  0  0  0  0  0  0  0  0  0  0  0
   -2.1310    2.4799  -20.9403 H   0  0  0  0  0  0  0  0  0  0  0  0
   -2.8613    2.0798  -18.6126 H   0  0  0  0  0  0  0  0  0  0  0  0
   -4.4838    0.9307  -17.0004 H   0  0  0  0  0  0  0  0  0  0  0  0
   -7.4109   -1.6061  -18.4079 H   0  0  0  0  0  0  0  0  0  0  0  0
   -8.0381   -0.3068  -21.7921 C   0  0  0  0  0  0  0  0  0  0  0  0
   -8.4376   -1.2297  -22.9529 C   0  0  2  0  0  0  0  0  0  0  0  0
   -9.7479   -0.8480  -23.6394 C   0  0  0  0  0  0  0  0  0  0  0  0
   -9.6281    0.0617  -24.2396 H   0  0  0  0  0  0  0  0  0  0  0  0
  -10.5507   -0.6685  -22.9131 H   0  0  0  0  0  0  0  0  0  0  0  0
  -10.0782   -1.6389  -24.3225 H   0  0  0  0  0  0  0  0  0  0  0  0
   -7.6346   -1.2000  -23.7027 H   0  0  0  0  0  0  0  0  0  0  0  0
   -7.5736    0.6316  -22.1113 H   0  0  0  0  0  0  0  0  0  0  0  0
   -8.9145   -0.0339  -21.1826 H   0  0  0  0  0  0  0  0  0  0  0  0
   -7.9971   -3.7548  -23.3033 C   0  0  0  0  0  0  0  0  0  0  0  0
   -6.7078   -3.8613  -23.8521 C   0  0  0  0  0  0  0  0  0  0  0  0
   -6.4455   -4.8015  -24.8343 C   0  0  0  0  0  0  0  0  0  0  0  0
   -4.8656   -4.8687  -25.5582 Cl  0  0  0  0  0  0  0  0  0  0  0  0
   -7.4248   -5.6905  -25.2779 C   0  0  0  0  0  0  0  0  0  0  0  0
   -8.6752   -5.6225  -24.7003 C   0  0  0  0  0  0  0  0  0  0  0  0
   -8.9614   -4.6617  -23.7310 C   0  0  0  0  0  0  0  0  0  0  0  0
  -10.3683   -4.5783  -23.2545 C   0  0  0  0  0  0  0  0  0  0  0  0
  -11.2161   -5.3125  -23.7374 O   0  0  0  0  0  0  0  0  0  0  0  0
   -9.4663   -6.3031  -24.9972 H   0  0  0  0  0  0  0  0  0  0  0  0
   -7.2042   -6.4143  -26.0566 H   0  0  0  0  0  0  0  0  0  0  0  0
   -5.8935   -3.2433  -23.4893 H   0  0  0  0  0  0  0  0  0  0  0  0
   -9.3240   -3.7139  -20.6779 H   0  0  0  0  0  0  0  0  0  0  0  0
  -10.0589   -2.1495  -21.0311 H   0  0  0  0  0  0  0  0  0  0  0  0
  -12.5609   -4.4902  -22.1257 H   0  0  0  0  0  0  0  0  0  0  0  0
  -12.1758   -3.3030  -20.8585 H   0  0  0  0  0  0  0  0  0  0  0  0
  -13.2368   -3.6066  -24.2126 H   0  0  0  0  0  0  0  0  0  0  0  0
  -14.9795   -1.4303  -23.6858 H   0  0  0  0  0  0  0  0  0  0  0  0
  -14.8214   -2.2755  -25.2385 H   0  0  0  0  0  0  0  0  0  0  0  0
  -14.2383    0.3217  -25.1806 H   0  0  0  0  0  0  0  0  0  0  0  0
  -13.0199   -0.7346  -25.9454 H   0  0  0  0  0  0  0  0  0  0  0  0
  -12.8127   -0.1553  -24.2662 H   0  0  0  0  0  0  0  0  0  0  0  0
  1  2  1  0
  2  3  1  0
  3  4  1  0
  4  5  2  0
  4  6  1  0
  6  7  1  0
  7  8  1  0
  9  8  1  1
  9 10  1  0
 10 11  2  0
 10 12  1  0
 12 13  1  0
 13 14  2  0
 14 15  1  0
 15 16  2  0
 16 17  1  0
 17 18  2  0
 18 19  1  0
 19 20  2  0
 20 21  1  0
 21 22  2  0
 21 23  1  0
 20 24  1  0
 19 25  1  0
 18 26  1  0
 16 27  1  0
 14 28  1  0
 12 29  1  0
 29 30  1  0
 30 31  1  0
 31 32  1  0
 31 33  1  0
 31 34  1  0
 30 35  1  6
 29 36  1  0
 29 37  1  0
  9 38  1  0
 38 39  2  0
 39 40  1  0
 40 41  1  0
 40 42  2  0
 42 43  1  0
 43 44  2  0
 44 45  1  0
 45 46  2  0
 43 47  1  0
 42 48  1  0
 39 49  1  0
  8 50  1  0
  8 51  1  0
  6 52  1  0
  6 53  1  0
  3 54  1  0
  2 55  1  0
  2 56  1  0
  1 57  1  0
  1 58  1  0
  1 59  1  0
 45  7  1  0
 30  9  1  0
 44 38  1  0
 22 13  1  0
 22 17  1  0
M  END
>  <cnnaffinities>  (51) 
[6.40552]

>  <score>  (51) 
6.40552

>  <index>  (51) 
53

>  <Smiles>  (51) 
C(C(N(C(=O)C(N1C([C@@]2(C(=O)N(c3c(nc(c4c(c(c(c(c34)[H])[H])[H])[H])[H])[H])C([C@@]2(C([H])([H])[H])[H])([H])[H])c2c(c(Cl)c(c(c2C1=O)[H])[H])[H])([H])[H])([H])[H])[H])([H])[H])([H])([H])[H]

>  <h>  (51) 
<NA>

>  <Training>  (51) 
True

>  <Success>  (51) 
True

>  <enamine_searched>  (51) 
False

>  <enamine_id>  (51) 
nan

$$$$

     RDKit          3D

 40 43  0  0  0  0  0  0  0  0999 V2000
   -9.4331   -3.8988  -22.7389 C   0  0  0  0  0  0  0  0  0  0  0  0
   -8.6636   -2.7319  -22.3534 N   0  0  0  0  0  0  0  0  0  0  0  0
   -8.6820   -1.4718  -22.8822 C   0  0  0  0  0  0  0  0  0  0  0  0
   -9.5577   -1.0618  -24.0159 C   0  0  0  0  0  0  0  0  0  0  0  0
  -10.9759   -0.8018  -23.5441 C   0  0  0  0  0  0  0  0  0  0  0  0
  -11.9713   -1.7537  -23.7445 C   0  0  0  0  0  0  0  0  0  0  0  0
  -13.2884   -1.5150  -23.3551 C   0  0  0  0  0  0  0  0  0  0  0  0
  -13.6000   -0.3457  -22.6608 C   0  0  0  0  0  0  0  0  0  0  0  0
  -12.5902    0.5781  -22.3895 C   0  0  0  0  0  0  0  0  0  0  0  0
  -11.2870    0.3585  -22.8350 C   0  0  0  0  0  0  0  0  0  0  0  0
  -10.4872    1.0646  -22.6050 H   0  0  0  0  0  0  0  0  0  0  0  0
  -12.8134    1.4702  -21.8045 H   0  0  0  0  0  0  0  0  0  0  0  0
  -14.6123   -0.1721  -22.2926 H   0  0  0  0  0  0  0  0  0  0  0  0
  -14.0664   -2.2460  -23.5675 H   0  0  0  0  0  0  0  0  0  0  0  0
  -11.6732   -2.7182  -24.1465 H   0  0  0  0  0  0  0  0  0  0  0  0
   -9.1176   -0.1632  -24.4571 H   0  0  0  0  0  0  0  0  0  0  0  0
   -9.5645   -1.8253  -24.8038 H   0  0  0  0  0  0  0  0  0  0  0  0
   -7.9317   -0.6486  -22.2110 N   0  0  0  0  0  0  0  0  0  0  0  0
   -7.4046   -1.3919  -21.1911 N   0  0  0  0  0  0  0  0  0  0  0  0
   -6.5984   -0.8204  -20.1759 C   0  0  0  0  0  0  0  0  0  0  0  0
   -6.9055   -1.0510  -18.8572 C   0  0  0  0  0  0  0  0  0  0  0  0
   -6.2154   -0.5340  -17.8146 N   0  0  0  0  0  0  0  0  0  0  0  0
   -5.1780    0.2163  -18.0933 C   0  0  0  0  0  0  0  0  0  0  0  0
   -4.7357    0.5207  -19.4070 C   0  0  0  0  0  0  0  0  0  0  0  0
   -3.6004    1.3436  -19.6334 C   0  0  0  0  0  0  0  0  0  0  0  0
   -3.1852    1.6115  -20.9070 C   0  0  0  0  0  0  0  0  0  0  0  0
   -3.8828    1.0558  -22.0052 C   0  0  0  0  0  0  0  0  0  0  0  0
   -4.9853    0.2599  -21.8146 C   0  0  0  0  0  0  0  0  0  0  0  0
   -5.4604   -0.0140  -20.5002 C   0  0  0  0  0  0  0  0  0  0  0  0
   -5.5336   -0.1508  -22.6555 H   0  0  0  0  0  0  0  0  0  0  0  0
   -3.5512    1.2855  -23.0135 H   0  0  0  0  0  0  0  0  0  0  0  0
   -2.3290    2.2591  -21.0818 H   0  0  0  0  0  0  0  0  0  0  0  0
   -3.0897    1.7616  -18.7694 H   0  0  0  0  0  0  0  0  0  0  0  0
   -4.6262    0.6173  -17.2435 H   0  0  0  0  0  0  0  0  0  0  0  0
   -7.7439   -1.6893  -18.5937 H   0  0  0  0  0  0  0  0  0  0  0  0
   -7.8402   -2.7071  -21.2344 C   0  0  0  0  0  0  0  0  0  0  0  0
   -7.5571   -3.6166  -20.4840 O   0  0  0  0  0  0  0  0  0  0  0  0
   -8.9187   -4.7652  -22.3224 H   0  0  0  0  0  0  0  0  0  0  0  0
  -10.4514   -3.8550  -22.3334 H   0  0  0  0  0  0  0  0  0  0  0  0
   -9.4680   -3.9832  -23.8301 H   0  0  0  0  0  0  0  0  0  0  0  0
  1  2  1  0
  2  3  1  0
  3  4  1  0
  4  5  1  0
  5  6  2  0
  6  7  1  0
  7  8  2  0
  8  9  1  0
  9 10  2  0
 10 11  1  0
  9 12  1  0
  8 13  1  0
  7 14  1  0
  6 15  1  0
  4 16  1  0
  4 17  1  0
  3 18  2  0
 18 19  1  0
 19 20  1  0
 20 21  2  0
 21 22  1  0
 22 23  2  0
 23 24  1  0
 24 25  2  0
 25 26  1  0
 26 27  2  0
 27 28  1  0
 28 29  2  0
 28 30  1  0
 27 31  1  0
 26 32  1  0
 25 33  1  0
 23 34  1  0
 21 35  1  0
 19 36  1  0
 36 37  2  0
  1 38  1  0
  1 39  1  0
  1 40  1  0
 36  2  1  0
 10  5  1  0
 29 20  1  0
 29 24  1  0
M  END
>  <cnnaffinities>  (52) 
[5.58164, 5.57366]

>  <score>  (52) 
5.58164

>  <index>  (52) 
54

>  <Smiles>  (52) 
C(n1c(C(c2c(c(c(c(c2[H])[H])[H])[H])[H])([H])[H])nn(c2c(nc(c3c(c(c(c(c23)[H])[H])[H])[H])[H])[H])c1=O)([H])([H])[H]

>  <h>  (52) 
<NA>

>  <Training>  (52) 
True

>  <Success>  (52) 
True

>  <enamine_searched>  (52) 
False

>  <enamine_id>  (52) 
nan

$$$$

     RDKit          3D

 61 66  0  0  0  0  0  0  0  0999 V2000
   -7.0052   -5.4622  -25.0469 C   0  0  0  0  0  0  0  0  0  0  0  0
   -7.3277   -4.7937  -23.8535 O   0  0  0  0  0  0  0  0  0  0  0  0
   -7.9816   -3.5721  -24.0864 C   0  0  0  0  0  0  0  0  0  0  0  0
   -8.2757   -2.9095  -22.7457 C   0  0  1  0  0  0  0  0  0  0  0  0
   -6.9993   -2.5577  -21.9617 C   0  0  0  0  0  0  0  0  0  0  0  0
   -7.3824   -1.3809  -21.2056 N   0  0  0  0  0  0  0  0  0  0  0  0
   -6.5973   -0.8119  -20.1757 C   0  0  0  0  0  0  0  0  0  0  0  0
   -6.9202   -1.0392  -18.8631 C   0  0  0  0  0  0  0  0  0  0  0  0
   -6.2266   -0.5417  -17.8094 N   0  0  0  0  0  0  0  0  0  0  0  0
   -5.1891    0.2152  -18.0800 C   0  0  0  0  0  0  0  0  0  0  0  0
   -4.7499    0.5345  -19.3970 C   0  0  0  0  0  0  0  0  0  0  0  0
   -3.6285    1.3716  -19.6376 C   0  0  0  0  0  0  0  0  0  0  0  0
   -3.2427    1.6662  -20.9162 C   0  0  0  0  0  0  0  0  0  0  0  0
   -3.9467    1.1308  -22.0163 C   0  0  0  0  0  0  0  0  0  0  0  0
   -5.0245    0.3016  -21.8092 C   0  0  0  0  0  0  0  0  0  0  0  0
   -5.4620   -0.0061  -20.4907 C   0  0  0  0  0  0  0  0  0  0  0  0
   -5.5853   -0.0724  -22.6610 H   0  0  0  0  0  0  0  0  0  0  0  0
   -3.6304    1.3887  -23.0249 H   0  0  0  0  0  0  0  0  0  0  0  0
   -2.3876    2.3122  -21.0930 H   0  0  0  0  0  0  0  0  0  0  0  0
   -3.0955    1.7727  -18.7811 H   0  0  0  0  0  0  0  0  0  0  0  0
   -4.6244    0.6145  -17.2354 H   0  0  0  0  0  0  0  0  0  0  0  0
   -7.7843   -1.6552  -18.6218 H   0  0  0  0  0  0  0  0  0  0  0  0
   -8.5764   -0.8129  -21.5857 C   0  0  0  0  0  0  0  0  0  0  0  0
   -9.0864    0.1472  -21.0459 O   0  0  0  0  0  0  0  0  0  0  0  0
   -9.1093   -1.5998  -22.8042 C   0  0  1  0  0  0  0  0  0  0  0  0
   -8.8316   -0.8245  -24.1126 C   0  0  0  0  0  0  0  0  0  0  0  0
   -9.6496    0.3639  -24.2269 N   0  0  0  0  0  0  0  0  0  0  0  0
   -9.0297    1.5959  -24.6735 C   0  0  0  0  0  0  0  0  0  0  0  0
   -8.2317    2.2778  -23.6019 C   0  0  0  0  0  0  0  0  0  0  0  0
   -6.8922    2.3719  -23.4214 C   0  0  0  0  0  0  0  0  0  0  0  0
   -6.6793    3.1384  -22.2976 N   0  0  0  0  0  4  0  0  0  0  0  0
   -7.8544    3.5288  -21.7983 C   0  0  0  0  0  0  0  0  0  0  0  0
   -8.8170    3.0005  -22.5742 N   0  0  0  0  0  0  0  0  0  0  0  0
   -9.7910    2.9372  -22.2920 H   0  0  0  0  0  0  0  0  0  0  0  0
   -8.0016    4.2165  -20.9737 H   0  0  0  0  0  0  0  0  0  0  0  0
   -5.7793    3.1795  -21.8458 H   0  0  0  0  0  0  0  0  0  0  0  0
   -6.0504    1.9600  -23.9610 H   0  0  0  0  0  0  0  0  0  0  0  0
   -9.8434    2.2336  -25.0357 H   0  0  0  0  0  0  0  0  0  0  0  0
   -8.3887    1.3651  -25.5301 H   0  0  0  0  0  0  0  0  0  0  0  0
  -10.9989    0.3243  -24.0395 C   0  0  0  0  0  0  0  0  0  0  0  0
  -11.7473    1.2120  -24.4275 O   0  0  0  0  0  0  0  0  0  0  0  0
  -11.4940   -0.8656  -23.2862 C   0  0  0  0  0  0  0  0  0  0  0  0
  -12.8682   -0.9717  -23.1048 C   0  0  0  0  0  0  0  0  0  0  0  0
  -13.3802   -1.9163  -22.2436 C   0  0  0  0  0  0  0  0  0  0  0  0
  -12.4956   -2.7850  -21.6016 C   0  0  0  0  0  0  0  0  0  0  0  0
  -13.0748   -3.9402  -20.4361 Cl  0  0  0  0  0  0  0  0  0  0  0  0
  -11.1356   -2.7333  -21.8305 C   0  0  0  0  0  0  0  0  0  0  0  0
  -10.6065   -1.7690  -22.6876 C   0  0  0  0  0  0  0  0  0  0  0  0
  -10.4951   -3.4344  -21.3078 H   0  0  0  0  0  0  0  0  0  0  0  0
  -14.4400   -1.9521  -22.0311 H   0  0  0  0  0  0  0  0  0  0  0  0
  -13.5013   -0.2658  -23.6310 H   0  0  0  0  0  0  0  0  0  0  0  0
   -9.0451   -1.4924  -24.9558 H   0  0  0  0  0  0  0  0  0  0  0  0
   -7.7799   -0.5263  -24.1698 H   0  0  0  0  0  0  0  0  0  0  0  0
   -6.1565   -2.3512  -22.6361 H   0  0  0  0  0  0  0  0  0  0  0  0
   -6.6933   -3.3622  -21.2877 H   0  0  0  0  0  0  0  0  0  0  0  0
   -8.8314   -3.6413  -22.1599 H   0  0  0  0  0  0  0  0  0  0  0  0
   -8.9195   -3.7391  -24.6448 H   0  0  0  0  0  0  0  0  0  0  0  0
   -7.3444   -2.9114  -24.7009 H   0  0  0  0  0  0  0  0  0  0  0  0
   -6.5407   -6.4132  -24.7769 H   0  0  0  0  0  0  0  0  0  0  0  0
   -7.8977   -5.6702  -25.6596 H   0  0  0  0  0  0  0  0  0  0  0  0
   -6.2939   -4.8862  -25.6604 H   0  0  0  0  0  0  0  0  0  0  0  0
  1  2  1  0
  2  3  1  0
  3  4  1  0
  4  5  1  0
  5  6  1  0
  6  7  1  0
  7  8  2  0
  8  9  1  0
  9 10  2  0
 10 11  1  0
 11 12  2  0
 12 13  1  0
 13 14  2  0
 14 15  1  0
 15 16  2  0
 15 17  1  0
 14 18  1  0
 13 19  1  0
 12 20  1  0
 10 21  1  0
  8 22  1  0
  6 23  1  0
 23 24  2  0
 23 25  1  0
 25 26  1  6
 26 27  1  0
 27 28  1  0
 28 29  1  0
 29 30  2  0
 30 31  1  0
 31 32  2  0
 32 33  1  0
 33 34  1  0
 32 35  1  0
 31 36  1  0
 30 37  1  0
 28 38  1  0
 28 39  1  0
 27 40  1  0
 40 41  2  0
 40 42  1  0
 42 43  2  0
 43 44  1  0
 44 45  2  0
 45 46  1  0
 45 47  1  0
 47 48  2  0
 47 49  1  0
 44 50  1  0
 43 51  1  0
 26 52  1  0
 26 53  1  0
  5 54  1  0
  5 55  1  0
  4 56  1  1
  3 57  1  0
  3 58  1  0
  1 59  1  0
  1 60  1  0
  1 61  1  0
 25  4  1  0
 33 29  1  0
 48 42  1  0
 16  7  1  0
 48 25  1  0
 16 11  1  0
M  CHG  1  31   1
M  END
>  <cnnaffinities>  (53) 
[6.31136, 6.72266]

>  <score>  (53) 
6.31136

>  <index>  (53) 
55

>  <Smiles>  (53) 
C(OC([C@]1(C(N(c2c(nc(c3c(c(c(c(c23)[H])[H])[H])[H])[H])[H])C(=O)[C@]21C(N(C(c1c([n+](c(n1[H])[H])[H])[H])([H])[H])C(=O)c1c(c(c(Cl)c(c21)[H])[H])[H])([H])[H])([H])[H])[H])([H])[H])([H])([H])[H]

>  <h>  (53) 
<NA>

>  <Training>  (53) 
True

>  <Success>  (53) 
True

>  <enamine_searched>  (53) 
False

>  <enamine_id>  (53) 
nan

$$$$

     RDKit          3D

 57 62  0  0  0  0  0  0  0  0999 V2000
   -9.8375   -0.7592  -23.5776 C   0  0  0  0  0  0  0  0  0  0  0  0
   -8.5052   -1.1796  -22.9562 C   0  0  1  0  0  0  0  0  0  0  0  0
   -8.0712   -0.2671  -21.7963 C   0  0  0  0  0  0  0  0  0  0  0  0
   -7.1524   -1.1022  -21.0356 N   0  0  0  0  0  0  0  0  0  0  0  0
   -6.3418   -0.6212  -19.9791 C   0  0  0  0  0  0  0  0  0  0  0  0
   -6.6268   -0.8950  -18.6657 C   0  0  0  0  0  0  0  0  0  0  0  0
   -5.9737   -0.3315  -17.6150 N   0  0  0  0  0  0  0  0  0  0  0  0
   -4.9811    0.4860  -17.8789 C   0  0  0  0  0  0  0  0  0  0  0  0
   -4.5281    0.7868  -19.1954 C   0  0  0  0  0  0  0  0  0  0  0  0
   -3.4034    1.6157  -19.4479 C   0  0  0  0  0  0  0  0  0  0  0  0
   -2.9890    1.8475  -20.7305 C   0  0  0  0  0  0  0  0  0  0  0  0
   -3.6787    1.2700  -21.8203 C   0  0  0  0  0  0  0  0  0  0  0  0
   -4.7769    0.4783  -21.6014 C   0  0  0  0  0  0  0  0  0  0  0  0
   -5.2263    0.2198  -20.2814 C   0  0  0  0  0  0  0  0  0  0  0  0
   -5.3064    0.0276  -22.4327 H   0  0  0  0  0  0  0  0  0  0  0  0
   -3.3437    1.4582  -22.8352 H   0  0  0  0  0  0  0  0  0  0  0  0
   -2.1268    2.4796  -20.9225 H   0  0  0  0  0  0  0  0  0  0  0  0
   -2.8901    2.0650  -18.6019 H   0  0  0  0  0  0  0  0  0  0  0  0
   -4.4671    0.9369  -17.0278 H   0  0  0  0  0  0  0  0  0  0  0  0
   -7.4303   -1.5810  -18.4041 H   0  0  0  0  0  0  0  0  0  0  0  0
   -7.2905   -2.4459  -21.3017 C   0  0  0  0  0  0  0  0  0  0  0  0
   -6.6475   -3.3293  -20.7660 O   0  0  0  0  0  0  0  0  0  0  0  0
   -8.4047   -2.6271  -22.3486 C   0  0  1  0  0  0  0  0  0  0  0  0
   -9.6646   -3.0601  -21.5536 C   0  0  0  0  0  0  0  0  0  0  0  0
  -10.6832   -3.6928  -22.3785 N   0  0  0  0  0  0  0  0  0  0  0  0
  -12.0710   -3.6223  -21.9343 C   0  0  0  0  0  0  0  0  0  0  0  0
  -12.8504   -2.5908  -22.6940 C   0  0  0  0  0  0  0  0  0  0  0  0
  -13.2696   -2.9322  -23.9115 N   0  0  0  0  0  0  0  0  0  0  0  0
  -13.9138   -1.9958  -24.5992 C   0  0  0  0  0  0  0  0  0  0  0  0
  -14.0865   -0.7112  -24.1080 C   0  0  0  0  0  0  0  0  0  0  0  0
  -13.6554   -0.4899  -22.8106 C   0  0  0  0  0  0  0  0  0  0  0  0
  -12.9941   -1.4052  -22.1014 N   0  0  0  0  0  0  0  0  0  0  0  0
  -13.8263    0.4658  -22.3198 H   0  0  0  0  0  0  0  0  0  0  0  0
  -14.5163    0.0698  -24.7177 H   0  0  0  0  0  0  0  0  0  0  0  0
  -14.2773   -2.2956  -25.5774 H   0  0  0  0  0  0  0  0  0  0  0  0
  -12.5285   -4.5968  -22.0898 H   0  0  0  0  0  0  0  0  0  0  0  0
  -12.0908   -3.3517  -20.8812 H   0  0  0  0  0  0  0  0  0  0  0  0
  -10.3648   -4.6156  -23.3367 C   0  0  0  0  0  0  0  0  0  0  0  0
  -11.1695   -5.3856  -23.8196 O   0  0  0  0  0  0  0  0  0  0  0  0
   -8.9619   -4.6246  -23.8104 C   0  0  0  0  0  0  0  0  0  0  0  0
   -8.6382   -5.5967  -24.7537 C   0  0  0  0  0  0  0  0  0  0  0  0
   -7.3691   -5.6687  -25.2791 C   0  0  0  0  0  0  0  0  0  0  0  0
   -6.4311   -4.7597  -24.8053 C   0  0  0  0  0  0  0  0  0  0  0  0
   -5.1863   -4.8186  -25.3038 F   0  0  0  0  0  0  0  0  0  0  0  0
   -6.7235   -3.8035  -23.8502 C   0  0  0  0  0  0  0  0  0  0  0  0
   -8.0290   -3.7003  -23.3500 C   0  0  0  0  0  0  0  0  0  0  0  0
   -5.9221   -3.1772  -23.4745 H   0  0  0  0  0  0  0  0  0  0  0  0
   -7.1011   -6.4109  -26.0217 H   0  0  0  0  0  0  0  0  0  0  0  0
   -9.4190   -6.2889  -25.0453 H   0  0  0  0  0  0  0  0  0  0  0  0
   -9.3495   -3.7383  -20.7469 H   0  0  0  0  0  0  0  0  0  0  0  0
  -10.1198   -2.1844  -21.0745 H   0  0  0  0  0  0  0  0  0  0  0  0
   -7.5840    0.6545  -22.1295 H   0  0  0  0  0  0  0  0  0  0  0  0
   -8.9389    0.0283  -21.1804 H   0  0  0  0  0  0  0  0  0  0  0  0
   -7.7262   -1.1525  -23.7354 H   0  0  0  0  0  0  0  0  0  0  0  0
   -9.6972    0.1337  -24.1986 H   0  0  0  0  0  0  0  0  0  0  0  0
  -10.5819   -0.5216  -22.8069 H   0  0  0  0  0  0  0  0  0  0  0  0
  -10.2468   -1.5509  -24.2144 H   0  0  0  0  0  0  0  0  0  0  0  0
  1  2  1  0
  2  3  1  0
  3  4  1  0
  4  5  1  0
  5  6  2  0
  6  7  1  0
  7  8  2  0
  8  9  1  0
  9 10  2  0
 10 11  1  0
 11 12  2  0
 12 13  1  0
 13 14  2  0
 13 15  1  0
 12 16  1  0
 11 17  1  0
 10 18  1  0
  8 19  1  0
  6 20  1  0
  4 21  1  0
 21 22  2  0
 21 23  1  0
 23 24  1  1
 24 25  1  0
 25 26  1  0
 26 27  1  0
 27 28  2  0
 28 29  1  0
 29 30  2  0
 30 31  1  0
 31 32  2  0
 31 33  1  0
 30 34  1  0
 29 35  1  0
 26 36  1  0
 26 37  1  0
 25 38  1  0
 38 39  2  0
 38 40  1  0
 40 41  2  0
 41 42  1  0
 42 43  2  0
 43 44  1  0
 43 45  1  0
 45 46  2  0
 45 47  1  0
 42 48  1  0
 41 49  1  0
 24 50  1  0
 24 51  1  0
  3 52  1  0
  3 53  1  0
  2 54  1  6
  1 55  1  0
  1 56  1  0
  1 57  1  0
 23  2  1  0
 32 27  1  0
 46 40  1  0
 14  5  1  0
 46 23  1  0
 14  9  1  0
M  END
>  <cnnaffinities>  (54) 
[6.69638, 6.71758]

>  <score>  (54) 
6.69638

>  <index>  (54) 
56

>  <Smiles>  (54) 
C([C@]1(C(N(c2c(nc(c3c(c(c(c(c23)[H])[H])[H])[H])[H])[H])C(=O)[C@]21C(N(C(c1nc(c(c(n1)[H])[H])[H])([H])[H])C(=O)c1c(c(c(F)c(c21)[H])[H])[H])([H])[H])([H])[H])[H])([H])([H])[H]

>  <h>  (54) 
<NA>

>  <Training>  (54) 
True

>  <Success>  (54) 
True

>  <enamine_searched>  (54) 
False

>  <enamine_id>  (54) 
nan

$$$$

     RDKit          3D

 59 63  0  0  0  0  0  0  0  0999 V2000
   -7.7121   -0.3232  -29.7927 C   0  0  0  0  0  0  0  0  0  0  0  0
   -7.9256   -1.4149  -28.8627 N   0  0  0  0  0  0  0  0  0  0  0  0
   -7.2260   -1.3877  -27.6944 C   0  0  0  0  0  0  0  0  0  0  0  0
   -6.3905   -0.5316  -27.4402 O   0  0  0  0  0  0  0  0  0  0  0  0
   -7.5540   -2.5213  -26.7218 C   0  0  0  0  0  0  0  0  0  0  0  0
   -8.4351   -2.0632  -25.6576 N   0  0  0  0  0  0  0  0  0  0  0  0
   -7.8760   -1.3730  -24.5005 C   0  0  0  0  0  0  0  0  0  0  0  0
   -8.7248   -1.6070  -23.2149 C   0  0  2  0  0  0  0  0  0  0  0  0
   -8.1435   -0.6645  -22.1435 C   0  0  0  0  0  0  0  0  0  0  0  0
   -8.2600    0.5455  -22.1161 O   0  0  0  0  0  0  0  0  0  0  0  0
   -7.4277   -1.4034  -21.2244 N   0  0  0  0  0  0  0  0  0  0  0  0
   -6.6194   -0.8195  -20.2113 C   0  0  0  0  0  0  0  0  0  0  0  0
   -6.9163   -1.0675  -18.8954 C   0  0  0  0  0  0  0  0  0  0  0  0
   -6.2390   -0.5613  -17.8363 N   0  0  0  0  0  0  0  0  0  0  0  0
   -5.2066    0.2034  -18.0993 C   0  0  0  0  0  0  0  0  0  0  0  0
   -4.7619    0.5128  -19.4144 C   0  0  0  0  0  0  0  0  0  0  0  0
   -3.6250    1.3348  -19.6294 C   0  0  0  0  0  0  0  0  0  0  0  0
   -3.1996    1.6069  -20.8989 C   0  0  0  0  0  0  0  0  0  0  0  0
   -3.8875    1.0668  -22.0081 C   0  0  0  0  0  0  0  0  0  0  0  0
   -4.9925    0.2757  -21.8252 C   0  0  0  0  0  0  0  0  0  0  0  0
   -5.4720   -0.0147  -20.5158 C   0  0  0  0  0  0  0  0  0  0  0  0
   -5.5193   -0.1176  -22.6884 H   0  0  0  0  0  0  0  0  0  0  0  0
   -3.5370    1.2865  -23.0111 H   0  0  0  0  0  0  0  0  0  0  0  0
   -2.3322    2.2386  -21.0620 H   0  0  0  0  0  0  0  0  0  0  0  0
   -3.1144    1.7476  -18.7633 H   0  0  0  0  0  0  0  0  0  0  0  0
   -4.6543    0.6112  -17.2523 H   0  0  0  0  0  0  0  0  0  0  0  0
   -7.7679   -1.6993  -18.6515 H   0  0  0  0  0  0  0  0  0  0  0  0
   -7.3588   -2.8148  -21.5572 C   0  0  0  0  0  0  0  0  0  0  0  0
   -8.5520   -3.0351  -22.5197 C   0  0  0  0  0  0  0  0  0  0  0  0
   -8.2709   -4.1903  -23.4825 C   0  0  0  0  0  0  0  0  0  0  0  0
   -7.3580   -4.0224  -24.0647 H   0  0  0  0  0  0  0  0  0  0  0  0
   -9.1080   -4.3143  -24.1765 H   0  0  0  0  0  0  0  0  0  0  0  0
   -8.1450   -5.1212  -22.9170 H   0  0  0  0  0  0  0  0  0  0  0  0
   -9.7969   -3.3986  -21.6887 C   0  0  0  0  0  0  0  0  0  0  0  0
  -10.0234   -2.6313  -20.9423 H   0  0  0  0  0  0  0  0  0  0  0  0
  -10.6761   -3.4988  -22.3324 H   0  0  0  0  0  0  0  0  0  0  0  0
   -9.6426   -4.3533  -21.1723 H   0  0  0  0  0  0  0  0  0  0  0  0
   -6.3967   -3.0708  -22.0334 H   0  0  0  0  0  0  0  0  0  0  0  0
   -7.4343   -3.4211  -20.6484 H   0  0  0  0  0  0  0  0  0  0  0  0
  -10.1446   -1.2206  -23.6026 C   0  0  0  0  0  0  0  0  0  0  0  0
  -10.9941   -0.5713  -22.7041 C   0  0  0  0  0  0  0  0  0  0  0  0
  -12.2640   -0.1745  -23.0766 C   0  0  0  0  0  0  0  0  0  0  0  0
  -13.1462    0.9158  -22.0499 Cl  0  0  0  0  0  0  0  0  0  0  0  0
  -12.8104   -0.5572  -24.2969 C   0  0  0  0  0  0  0  0  0  0  0  0
  -11.9674   -1.1592  -25.2065 C   0  0  0  0  0  0  0  0  0  0  0  0
  -10.6427   -1.4463  -24.8893 C   0  0  0  0  0  0  0  0  0  0  0  0
   -9.7603   -1.9580  -25.9724 C   0  0  0  0  0  0  0  0  0  0  0  0
  -10.1908   -2.2612  -27.0824 O   0  0  0  0  0  0  0  0  0  0  0  0
  -12.3170   -1.4020  -26.1983 H   0  0  0  0  0  0  0  0  0  0  0  0
  -13.8544   -0.3812  -24.5324 H   0  0  0  0  0  0  0  0  0  0  0  0
  -10.6360   -0.3622  -21.7095 H   0  0  0  0  0  0  0  0  0  0  0  0
   -6.8471   -1.7208  -24.3590 H   0  0  0  0  0  0  0  0  0  0  0  0
   -7.8294   -0.2807  -24.6657 H   0  0  0  0  0  0  0  0  0  0  0  0
   -8.0438   -3.3497  -27.2420 H   0  0  0  0  0  0  0  0  0  0  0  0
   -6.6280   -2.8977  -26.2766 H   0  0  0  0  0  0  0  0  0  0  0  0
   -8.8003   -1.9309  -28.8880 H   0  0  0  0  0  0  0  0  0  0  0  0
   -8.3907   -0.4190  -30.6413 H   0  0  0  0  0  0  0  0  0  0  0  0
   -6.6797   -0.3597  -30.1571 H   0  0  0  0  0  0  0  0  0  0  0  0
   -7.8833    0.6480  -29.3100 H   0  0  0  0  0  0  0  0  0  0  0  0
  1  2  1  0
  2  3  1  0
  3  4  2  0
  3  5  1  0
  5  6  1  0
  6  7  1  0
  8  7  1  6
  8  9  1  0
  9 10  2  0
  9 11  1  0
 11 12  1  0
 12 13  2  0
 13 14  1  0
 14 15  2  0
 15 16  1  0
 16 17  2  0
 17 18  1  0
 18 19  2  0
 19 20  1  0
 20 21  2  0
 20 22  1  0
 19 23  1  0
 18 24  1  0
 17 25  1  0
 15 26  1  0
 13 27  1  0
 11 28  1  0
 28 29  1  0
 29 30  1  0
 30 31  1  0
 30 32  1  0
 30 33  1  0
 29 34  1  0
 34 35  1  0
 34 36  1  0
 34 37  1  0
 28 38  1  0
 28 39  1  0
  8 40  1  0
 40 41  2  0
 41 42  1  0
 42 43  1  0
 42 44  2  0
 44 45  1  0
 45 46  2  0
 46 47  1  0
 47 48  2  0
 45 49  1  0
 44 50  1  0
 41 51  1  0
  7 52  1  0
  7 53  1  0
  5 54  1  0
  5 55  1  0
  2 56  1  0
  1 57  1  0
  1 58  1  0
  1 59  1  0
 47  6  1  0
 29  8  1  0
 46 40  1  0
 21 12  1  0
 21 16  1  0
M  END
>  <cnnaffinities>  (55) 
[5.79236, 5.90664, 5.90182, 5.74562]

>  <score>  (55) 
5.79236

>  <index>  (55) 
57

>  <Smiles>  (55) 
C(N(C(=O)C(N1C([C@@]2(C(=O)N(c3c(nc(c4c(c(c(c(c34)[H])[H])[H])[H])[H])[H])C(C2(C([H])([H])[H])C([H])([H])[H])([H])[H])c2c(c(Cl)c(c(c2C1=O)[H])[H])[H])([H])[H])([H])[H])[H])([H])([H])[H]

>  <h>  (55) 
<NA>

>  <Training>  (55) 
True

>  <Success>  (55) 
True

>  <enamine_searched>  (55) 
False

>  <enamine_id>  (55) 
nan

$$$$

     RDKit          3D

 42 45  0  0  0  0  0  0  0  0999 V2000
  -12.0398   -4.0832  -22.6735 C   0  0  0  0  0  0  0  0  0  0  0  0
  -10.6445   -4.4083  -22.8313 N   0  0  0  0  0  0  0  0  0  0  0  0
   -9.7550   -4.0082  -21.7786 C   0  0  0  0  0  0  0  0  0  0  0  0
   -8.6209   -3.1646  -22.3608 C   0  0  1  0  0  0  0  0  0  0  0  0
   -7.7133   -2.7612  -21.2117 C   0  0  0  0  0  0  0  0  0  0  0  0
   -7.3661   -3.5407  -20.3463 O   0  0  0  0  0  0  0  0  0  0  0  0
   -7.3133   -1.4436  -21.2172 N   0  0  0  0  0  0  0  0  0  0  0  0
   -6.5632   -0.8648  -20.1747 C   0  0  0  0  0  0  0  0  0  0  0  0
   -6.8963   -1.0792  -18.8587 C   0  0  0  0  0  0  0  0  0  0  0  0
   -6.2344   -0.5392  -17.8078 N   0  0  0  0  0  0  0  0  0  0  0  0
   -5.1959    0.2160  -18.0809 C   0  0  0  0  0  0  0  0  0  0  0  0
   -4.7417    0.5129  -19.3947 C   0  0  0  0  0  0  0  0  0  0  0  0
   -3.6153    1.3391  -19.6321 C   0  0  0  0  0  0  0  0  0  0  0  0
   -3.2107    1.6082  -20.9106 C   0  0  0  0  0  0  0  0  0  0  0  0
   -3.9153    1.0683  -22.0104 C   0  0  0  0  0  0  0  0  0  0  0  0
   -5.0118    0.2667  -21.8092 C   0  0  0  0  0  0  0  0  0  0  0  0
   -5.4471   -0.0295  -20.4897 C   0  0  0  0  0  0  0  0  0  0  0  0
   -5.5480   -0.1378  -22.6643 H   0  0  0  0  0  0  0  0  0  0  0  0
   -3.5885    1.3003  -23.0197 H   0  0  0  0  0  0  0  0  0  0  0  0
   -2.3518    2.2492  -21.0866 H   0  0  0  0  0  0  0  0  0  0  0  0
   -3.1000    1.7583  -18.7735 H   0  0  0  0  0  0  0  0  0  0  0  0
   -4.6541    0.6349  -17.2354 H   0  0  0  0  0  0  0  0  0  0  0  0
   -7.7506   -1.7051  -18.6133 H   0  0  0  0  0  0  0  0  0  0  0  0
   -7.6599   -0.8363  -21.9492 H   0  0  0  0  0  0  0  0  0  0  0  0
   -7.9312   -3.9660  -23.4433 C   0  0  0  0  0  0  0  0  0  0  0  0
   -6.5826   -3.7845  -23.7558 C   0  0  0  0  0  0  0  0  0  0  0  0
   -6.0153   -4.5399  -24.7720 C   0  0  0  0  0  0  0  0  0  0  0  0
   -4.3538   -4.2940  -25.2109 Cl  0  0  0  0  0  0  0  0  0  0  0  0
   -6.7494   -5.4927  -25.4745 C   0  0  0  0  0  0  0  0  0  0  0  0
   -8.0856   -5.6722  -25.1561 C   0  0  0  0  0  0  0  0  0  0  0  0
   -8.6815   -4.9074  -24.1531 C   0  0  0  0  0  0  0  0  0  0  0  0
  -10.1535   -5.0945  -23.9045 C   0  0  0  0  0  0  0  0  0  0  0  0
  -10.8234   -5.8148  -24.6276 O   0  0  0  0  0  0  0  0  0  0  0  0
   -8.6861   -6.4121  -25.6755 H   0  0  0  0  0  0  0  0  0  0  0  0
   -6.2657   -6.0690  -26.2586 H   0  0  0  0  0  0  0  0  0  0  0  0
   -5.9857   -3.0638  -23.2039 H   0  0  0  0  0  0  0  0  0  0  0  0
   -9.0368   -2.2485  -22.8086 H   0  0  0  0  0  0  0  0  0  0  0  0
  -10.3251   -3.4062  -21.0749 H   0  0  0  0  0  0  0  0  0  0  0  0
   -9.3224   -4.8713  -21.2440 H   0  0  0  0  0  0  0  0  0  0  0  0
  -12.2678   -4.1061  -21.6049 H   0  0  0  0  0  0  0  0  0  0  0  0
  -12.6416   -4.8478  -23.1561 H   0  0  0  0  0  0  0  0  0  0  0  0
  -12.2495   -3.0771  -23.0669 H   0  0  0  0  0  0  0  0  0  0  0  0
  1  2  1  0
  2  3  1  0
  3  4  1  0
  4  5  1  0
  5  6  2  0
  5  7  1  0
  7  8  1  0
  8  9  2  0
  9 10  1  0
 10 11  2  0
 11 12  1  0
 12 13  2  0
 13 14  1  0
 14 15  2  0
 15 16  1  0
 16 17  2  0
 16 18  1  0
 15 19  1  0
 14 20  1  0
 13 21  1  0
 11 22  1  0
  9 23  1  0
  7 24  1  0
  4 25  1  0
 25 26  2  0
 26 27  1  0
 27 28  1  0
 27 29  2  0
 29 30  1  0
 30 31  2  0
 31 32  1  0
 32 33  2  0
 30 34  1  0
 29 35  1  0
 26 36  1  0
  4 37  1  6
  3 38  1  0
  3 39  1  0
  1 40  1  0
  1 41  1  0
  1 42  1  0
 32  2  1  0
 17  8  1  0
 31 25  1  0
 17 12  1  0
M  END
>  <cnnaffinities>  (56) 
[5.68053, 5.5368]

>  <score>  (56) 
5.68053

>  <index>  (56) 
58

>  <Smiles>  (56) 
C(N1C([C@@](C(=O)N(c2c(nc(c3c(c(c(c(c23)[H])[H])[H])[H])[H])[H])[H])(c2c(c(Cl)c(c(c2C1=O)[H])[H])[H])[H])([H])[H])([H])([H])[H]

>  <h>  (56) 
<NA>

>  <Training>  (56) 
True

>  <Success>  (56) 
True

>  <enamine_searched>  (56) 
False

>  <enamine_id>  (56) 
nan

$$$$

     RDKit          3D

 60 65  0  0  0  0  0  0  0  0999 V2000
   -7.4097    3.3867  -21.7998 C   0  0  0  0  0  0  0  0  0  0  0  0
   -8.2645    2.9159  -22.8696 N   0  0  0  0  0  0  0  0  0  0  0  0
   -7.6769    2.2310  -23.8763 C   0  0  0  0  0  0  0  0  0  0  0  0
   -6.4613    2.1427  -23.9811 O   0  0  0  0  0  0  0  0  0  0  0  0
   -8.6119    1.5962  -24.9011 C   0  0  0  0  0  0  0  0  0  0  0  0
   -9.3566    0.4642  -24.3900 N   0  0  0  0  0  0  0  0  0  0  0  0
   -8.6491   -0.7938  -24.2340 C   0  0  0  0  0  0  0  0  0  0  0  0
   -9.0264   -1.5059  -22.9231 C   0  0  2  0  0  0  0  0  0  0  0  0
   -8.4976   -0.7303  -21.6963 C   0  0  0  0  0  0  0  0  0  0  0  0
   -8.9492    0.2866  -21.2060 O   0  0  0  0  0  0  0  0  0  0  0  0
   -7.3916   -1.3878  -21.2059 N   0  0  0  0  0  0  0  0  0  0  0  0
   -6.5991   -0.8144  -20.1755 C   0  0  0  0  0  0  0  0  0  0  0  0
   -6.9139   -1.0407  -18.8571 C   0  0  0  0  0  0  0  0  0  0  0  0
   -6.2154   -0.5434  -17.8069 N   0  0  0  0  0  0  0  0  0  0  0  0
   -5.1738    0.2084  -18.0763 C   0  0  0  0  0  0  0  0  0  0  0  0
   -4.7326    0.5270  -19.3930 C   0  0  0  0  0  0  0  0  0  0  0  0
   -3.6048    1.3575  -19.6380 C   0  0  0  0  0  0  0  0  0  0  0  0
   -3.2177    1.6496  -20.9187 C   0  0  0  0  0  0  0  0  0  0  0  0
   -3.9419    1.1275  -22.0144 C   0  0  0  0  0  0  0  0  0  0  0  0
   -5.0385    0.3243  -21.8021 C   0  0  0  0  0  0  0  0  0  0  0  0
   -5.4643    0.0029  -20.4838 C   0  0  0  0  0  0  0  0  0  0  0  0
   -5.6015   -0.0557  -22.6507 H   0  0  0  0  0  0  0  0  0  0  0  0
   -3.6514    1.3777  -23.0291 H   0  0  0  0  0  0  0  0  0  0  0  0
   -2.3641    2.3001  -21.0952 H   0  0  0  0  0  0  0  0  0  0  0  0
   -3.0774    1.7694  -18.7828 H   0  0  0  0  0  0  0  0  0  0  0  0
   -4.6223    0.6096  -17.2275 H   0  0  0  0  0  0  0  0  0  0  0  0
   -7.7682   -1.6659  -18.6057 H   0  0  0  0  0  0  0  0  0  0  0  0
   -7.0338   -2.5854  -21.9429 C   0  0  0  0  0  0  0  0  0  0  0  0
   -8.3001   -2.8794  -22.7655 C   0  0  2  0  0  0  0  0  0  0  0  0
   -8.0835   -3.7706  -24.0168 C   0  0  0  0  0  0  0  0  0  0  0  0
   -6.8717   -3.4823  -24.8607 C   0  0  0  0  0  0  0  0  0  0  0  0
   -6.8749   -2.7979  -25.9980 N   0  0  0  0  0  0  0  0  0  0  0  0
   -5.6044   -2.7643  -26.3926 N   0  0  0  0  0  0  0  0  0  0  0  0
   -4.8703   -3.4214  -25.5365 N   0  0  0  0  0  2  0  0  0  0  0  0
   -5.6434   -3.8915  -24.5593 N   0  0  0  0  0  0  0  0  0  0  0  0
   -7.9748   -4.8139  -23.6986 H   0  0  0  0  0  0  0  0  0  0  0  0
   -8.9724   -3.7168  -24.6551 H   0  0  0  0  0  0  0  0  0  0  0  0
   -8.9609   -3.4610  -22.1245 H   0  0  0  0  0  0  0  0  0  0  0  0
   -6.1705   -2.4162  -22.5996 H   0  0  0  0  0  0  0  0  0  0  0  0
   -6.7760   -3.4059  -21.2598 H   0  0  0  0  0  0  0  0  0  0  0  0
  -10.5345   -1.5483  -22.8682 C   0  0  0  0  0  0  0  0  0  0  0  0
  -11.1424   -2.4439  -22.0002 C   0  0  0  0  0  0  0  0  0  0  0  0
  -12.5069   -2.4529  -21.8356 C   0  0  0  0  0  0  0  0  0  0  0  0
  -13.0681   -3.4986  -20.5516 Cl  0  0  0  0  0  0  0  0  0  0  0  0
  -13.3343   -1.6045  -22.5824 C   0  0  0  0  0  0  0  0  0  0  0  0
  -12.7342   -0.6682  -23.4136 C   0  0  0  0  0  0  0  0  0  0  0  0
  -11.3426   -0.6104  -23.5254 C   0  0  0  0  0  0  0  0  0  0  0  0
  -10.7225    0.5330  -24.2759 C   0  0  0  0  0  0  0  0  0  0  0  0
  -11.3801    1.4656  -24.7137 O   0  0  0  0  0  0  0  0  0  0  0  0
  -13.3176    0.0651  -23.9668 H   0  0  0  0  0  0  0  0  0  0  0  0
  -14.4158   -1.6604  -22.4950 H   0  0  0  0  0  0  0  0  0  0  0  0
  -10.5680   -3.1319  -21.3987 H   0  0  0  0  0  0  0  0  0  0  0  0
   -7.5777   -0.5719  -24.2443 H   0  0  0  0  0  0  0  0  0  0  0  0
   -8.8703   -1.4674  -25.0772 H   0  0  0  0  0  0  0  0  0  0  0  0
   -7.9624    1.2782  -25.7225 H   0  0  0  0  0  0  0  0  0  0  0  0
   -9.3677    2.3027  -25.2518 H   0  0  0  0  0  0  0  0  0  0  0  0
   -9.2526    2.7948  -22.7025 H   0  0  0  0  0  0  0  0  0  0  0  0
   -8.0353    3.8401  -21.0331 H   0  0  0  0  0  0  0  0  0  0  0  0
   -6.8187    2.5478  -21.3993 H   0  0  0  0  0  0  0  0  0  0  0  0
   -6.7092    4.1430  -22.1684 H   0  0  0  0  0  0  0  0  0  0  0  0
  1  2  1  0
  2  3  1  0
  3  4  2  0
  3  5  1  0
  5  6  1  0
  6  7  1  0
  8  7  1  6
  8  9  1  0
  9 10  2  0
  9 11  1  0
 11 12  1  0
 12 13  2  0
 13 14  1  0
 14 15  2  0
 15 16  1  0
 16 17  2  0
 17 18  1  0
 18 19  2  0
 19 20  1  0
 20 21  2  0
 20 22  1  0
 19 23  1  0
 18 24  1  0
 17 25  1  0
 15 26  1  0
 13 27  1  0
 11 28  1  0
 28 29  1  0
 29 30  1  0
 30 31  1  0
 31 32  1  0
 32 33  2  0
 33 34  1  0
 34 35  1  0
 30 36  1  0
 30 37  1  0
 29 38  1  1
 28 39  1  0
 28 40  1  0
  8 41  1  0
 41 42  2  0
 42 43  1  0
 43 44  1  0
 43 45  2  0
 45 46  1  0
 46 47  2  0
 47 48  1  0
 48 49  2  0
 46 50  1  0
 45 51  1  0
 42 52  1  0
  7 53  1  0
  7 54  1  0
  5 55  1  0
  5 56  1  0
  2 57  1  0
  1 58  1  0
  1 59  1  0
  1 60  1  0
 48  6  1  0
 29  8  1  0
 35 31  2  0
 47 41  1  0
 21 12  1  0
 21 16  1  0
M  CHG  1  34  -1
M  END
>  <cnnaffinities>  (57) 
[6.00553, 6.02464]

>  <score>  (57) 
6.00553

>  <index>  (57) 
59

>  <Smiles>  (57) 
C(N(C(=O)C(N1C([C@@]2(C(=O)N(c3c(nc(c4c(c(c(c(c34)[H])[H])[H])[H])[H])[H])C([C@@]2(C(c2nn[n-]n2)([H])[H])[H])([H])[H])c2c(c(Cl)c(c(c2C1=O)[H])[H])[H])([H])[H])([H])[H])[H])([H])([H])[H]

>  <h>  (57) 
<NA>

>  <Training>  (57) 
True

>  <Success>  (57) 
True

>  <enamine_searched>  (57) 
False

>  <enamine_id>  (57) 
nan

$$$$

     RDKit          3D

 62 67  0  0  0  0  0  0  0  0999 V2000
  -11.2581    4.3481  -25.2081 C   0  0  0  0  0  0  0  0  0  0  0  0
   -9.7772    4.1708  -25.5112 C   0  0  0  0  0  0  0  0  0  0  0  0
   -9.0028    3.5786  -24.4344 N   0  0  0  0  0  0  0  0  0  0  0  0
   -8.4495    4.4116  -23.5430 N   0  0  0  0  0  0  0  0  0  0  0  0
   -7.8804    3.6294  -22.6397 C   0  0  0  0  0  0  0  0  0  0  0  0
   -8.0728    2.2676  -22.9452 C   0  0  0  0  0  0  0  0  0  0  0  0
   -8.8051    2.2701  -24.1137 C   0  0  0  0  0  0  0  0  0  0  0  0
   -9.3018    1.1273  -24.9566 C   0  0  0  0  0  0  0  0  0  0  0  0
   -9.7556    0.0171  -24.1457 N   0  0  0  0  0  0  0  0  0  0  0  0
   -8.9559   -1.1829  -24.0057 C   0  0  0  0  0  0  0  0  0  0  0  0
   -9.1737   -1.8841  -22.6410 C   0  0  2  0  0  0  0  0  0  0  0  0
   -8.6374   -1.0280  -21.4720 C   0  0  0  0  0  0  0  0  0  0  0  0
   -9.2102   -0.1139  -20.9132 O   0  0  0  0  0  0  0  0  0  0  0  0
   -7.3630   -1.4511  -21.1809 N   0  0  0  0  0  0  0  0  0  0  0  0
   -6.5985   -0.8395  -20.1614 C   0  0  0  0  0  0  0  0  0  0  0  0
   -6.9238   -1.0468  -18.8447 C   0  0  0  0  0  0  0  0  0  0  0  0
   -6.2254   -0.5409  -17.7986 N   0  0  0  0  0  0  0  0  0  0  0  0
   -5.1832    0.2051  -18.0757 C   0  0  0  0  0  0  0  0  0  0  0  0
   -4.7472    0.5117  -19.3961 C   0  0  0  0  0  0  0  0  0  0  0  0
   -3.6256    1.3470  -19.6369 C   0  0  0  0  0  0  0  0  0  0  0  0
   -3.2443    1.6470  -20.9146 C   0  0  0  0  0  0  0  0  0  0  0  0
   -3.9683    1.1301  -22.0121 C   0  0  0  0  0  0  0  0  0  0  0  0
   -5.0607    0.3194  -21.8058 C   0  0  0  0  0  0  0  0  0  0  0  0
   -5.4720   -0.0196  -20.4866 C   0  0  0  0  0  0  0  0  0  0  0  0
   -5.6160   -0.0560  -22.6615 H   0  0  0  0  0  0  0  0  0  0  0  0
   -3.6642    1.3876  -23.0227 H   0  0  0  0  0  0  0  0  0  0  0  0
   -2.3908    2.2958  -21.0931 H   0  0  0  0  0  0  0  0  0  0  0  0
   -3.0976    1.7549  -18.7790 H   0  0  0  0  0  0  0  0  0  0  0  0
   -4.6201    0.6116  -17.2332 H   0  0  0  0  0  0  0  0  0  0  0  0
   -7.7852   -1.6596  -18.5866 H   0  0  0  0  0  0  0  0  0  0  0  0
   -6.9464   -2.6144  -21.9391 C   0  0  0  0  0  0  0  0  0  0  0  0
   -8.2762   -3.1484  -22.5067 C   0  0  2  0  0  0  0  0  0  0  0  0
   -8.0958   -3.9902  -23.7670 C   0  0  0  0  0  0  0  0  0  0  0  0
   -7.5639   -3.4207  -24.5398 H   0  0  0  0  0  0  0  0  0  0  0  0
   -7.5072   -4.8907  -23.5622 H   0  0  0  0  0  0  0  0  0  0  0  0
   -9.0588   -4.3027  -24.1870 H   0  0  0  0  0  0  0  0  0  0  0  0
   -8.7311   -3.7567  -21.7177 H   0  0  0  0  0  0  0  0  0  0  0  0
   -6.4377   -3.3297  -21.2861 H   0  0  0  0  0  0  0  0  0  0  0  0
   -6.2496   -2.3480  -22.7490 H   0  0  0  0  0  0  0  0  0  0  0  0
  -10.6627   -2.0668  -22.4762 C   0  0  0  0  0  0  0  0  0  0  0  0
  -11.2145   -3.1213  -21.7471 C   0  0  0  0  0  0  0  0  0  0  0  0
  -12.5311   -3.0388  -21.3415 C   0  0  0  0  0  0  0  0  0  0  0  0
  -13.0017   -3.9789  -20.5047 F   0  0  0  0  0  0  0  0  0  0  0  0
  -13.3825   -2.0097  -21.7372 C   0  0  0  0  0  0  0  0  0  0  0  0
  -12.8793   -1.0614  -22.5883 C   0  0  0  0  0  0  0  0  0  0  0  0
  -11.5329   -1.0651  -22.9274 C   0  0  0  0  0  0  0  0  0  0  0  0
  -11.0498    0.0792  -23.7405 C   0  0  0  0  0  0  0  0  0  0  0  0
  -11.7864    1.0099  -24.0419 O   0  0  0  0  0  0  0  0  0  0  0  0
  -13.5037   -0.2687  -22.9769 H   0  0  0  0  0  0  0  0  0  0  0  0
  -14.3985   -1.9338  -21.3617 H   0  0  0  0  0  0  0  0  0  0  0  0
  -10.6333   -3.9776  -21.4194 H   0  0  0  0  0  0  0  0  0  0  0  0
   -9.2030   -1.9069  -24.7966 H   0  0  0  0  0  0  0  0  0  0  0  0
   -7.9081   -0.9059  -24.1265 H   0  0  0  0  0  0  0  0  0  0  0  0
  -10.1680    1.4386  -25.5514 H   0  0  0  0  0  0  0  0  0  0  0  0
   -8.5312    0.7425  -25.6357 H   0  0  0  0  0  0  0  0  0  0  0  0
   -7.7866    1.3910  -22.3786 H   0  0  0  0  0  0  0  0  0  0  0  0
   -7.3669    4.1050  -21.8133 H   0  0  0  0  0  0  0  0  0  0  0  0
   -9.3101    5.1430  -25.6765 H   0  0  0  0  0  0  0  0  0  0  0  0
   -9.6403    3.5699  -26.4148 H   0  0  0  0  0  0  0  0  0  0  0  0
  -11.7626    3.3830  -25.0862 H   0  0  0  0  0  0  0  0  0  0  0  0
  -11.4152    4.9461  -24.3065 H   0  0  0  0  0  0  0  0  0  0  0  0
  -11.7035    4.8908  -26.0472 H   0  0  0  0  0  0  0  0  0  0  0  0
  1  2  1  0
  2  3  1  0
  3  4  1  0
  4  5  2  0
  5  6  1  0
  6  7  2  0
  7  8  1  0
  8  9  1  0
  9 10  1  0
 11 10  1  6
 11 12  1  0
 12 13  2  0
 12 14  1  0
 14 15  1  0
 15 16  2  0
 16 17  1  0
 17 18  2  0
 18 19  1  0
 19 20  2  0
 20 21  1  0
 21 22  2  0
 22 23  1  0
 23 24  2  0
 23 25  1  0
 22 26  1  0
 21 27  1  0
 20 28  1  0
 18 29  1  0
 16 30  1  0
 14 31  1  0
 31 32  1  0
 32 33  1  0
 33 34  1  0
 33 35  1  0
 33 36  1  0
 32 37  1  1
 31 38  1  0
 31 39  1  0
 11 40  1  0
 40 41  2  0
 41 42  1  0
 42 43  1  0
 42 44  2  0
 44 45  1  0
 45 46  2  0
 46 47  1  0
 47 48  2  0
 45 49  1  0
 44 50  1  0
 41 51  1  0
 10 52  1  0
 10 53  1  0
  8 54  1  0
  8 55  1  0
  6 56  1  0
  5 57  1  0
  2 58  1  0
  2 59  1  0
  1 60  1  0
  1 61  1  0
  1 62  1  0
  7  3  1  0
 47  9  1  0
 32 11  1  0
 46 40  1  0
 24 15  1  0
 24 19  1  0
M  END
>  <cnnaffinities>  (58) 
[6.59467, 6.3267, 6.18113]

>  <score>  (58) 
6.59467

>  <index>  (58) 
60

>  <Smiles>  (58) 
C(C(n1nc(c(c1C(N1C([C@@]2(C(=O)N(c3c(nc(c4c(c(c(c(c34)[H])[H])[H])[H])[H])[H])C([C@@]2(C([H])([H])[H])[H])([H])[H])c2c(c(F)c(c(c2C1=O)[H])[H])[H])([H])[H])([H])[H])[H])[H])([H])[H])([H])([H])[H]

>  <h>  (58) 
<NA>

>  <Training>  (58) 
True

>  <Success>  (58) 
True

>  <enamine_searched>  (58) 
False

>  <enamine_id>  (58) 
nan

$$$$

     RDKit          3D

 44 47  0  0  0  0  0  0  0  0999 V2000
   -9.0466    0.3371  -21.1189 O   0  0  0  0  0  0  0  0  0  0  0  0
   -8.3561   -0.3301  -21.8655 C   0  0  0  0  0  0  0  0  0  0  0  0
   -7.4325   -1.4147  -21.2747 C   0  0  0  0  0  0  0  0  0  0  0  0
   -6.5696   -0.8336  -20.1729 C   0  0  0  0  0  0  0  0  0  0  0  0
   -6.8767   -1.0396  -18.8542 C   0  0  0  0  0  0  0  0  0  0  0  0
   -6.1935   -0.5317  -17.7913 N   0  0  0  0  0  0  0  0  0  0  0  0
   -5.1566    0.2227  -18.0633 C   0  0  0  0  0  0  0  0  0  0  0  0
   -4.7199    0.5329  -19.3794 C   0  0  0  0  0  0  0  0  0  0  0  0
   -3.5973    1.3651  -19.6223 C   0  0  0  0  0  0  0  0  0  0  0  0
   -3.2084    1.6581  -20.9006 C   0  0  0  0  0  0  0  0  0  0  0  0
   -3.9288    1.1254  -21.9941 C   0  0  0  0  0  0  0  0  0  0  0  0
   -5.0181    0.3157  -21.7870 C   0  0  0  0  0  0  0  0  0  0  0  0
   -5.4459   -0.0048  -20.4711 C   0  0  0  0  0  0  0  0  0  0  0  0
   -5.5602   -0.0798  -22.6429 H   0  0  0  0  0  0  0  0  0  0  0  0
   -3.6151    1.3669  -23.0057 H   0  0  0  0  0  0  0  0  0  0  0  0
   -2.3535    2.3052  -21.0854 H   0  0  0  0  0  0  0  0  0  0  0  0
   -3.0622    1.7796  -18.7706 H   0  0  0  0  0  0  0  0  0  0  0  0
   -4.6009    0.6291  -17.2154 H   0  0  0  0  0  0  0  0  0  0  0  0
   -7.7303   -1.6608  -18.5830 H   0  0  0  0  0  0  0  0  0  0  0  0
   -6.8108   -1.8931  -22.0426 H   0  0  0  0  0  0  0  0  0  0  0  0
   -8.0807   -2.1889  -20.8452 H   0  0  0  0  0  0  0  0  0  0  0  0
   -8.3417   -0.1181  -23.2375 N   0  0  0  0  0  0  0  0  0  0  0  0
   -8.0794   -1.1564  -24.2223 C   0  0  0  0  0  0  0  0  0  0  0  0
   -8.9622   -0.9723  -25.4565 C   0  0  0  0  0  0  0  0  0  0  0  0
   -8.8510    0.4294  -26.0373 C   0  0  0  0  0  0  0  0  0  0  0  0
   -9.6544    0.6343  -27.3408 C   0  0  0  0  0  0  0  0  0  0  0  0
   -8.3544    0.9016  -28.1285 C   0  0  0  0  0  0  0  0  0  0  0  0
   -7.5441    0.6976  -26.8305 C   0  0  0  0  0  0  0  0  0  0  0  0
   -6.9863    1.5760  -26.4959 H   0  0  0  0  0  0  0  0  0  0  0  0
   -6.8527   -0.1484  -26.8509 H   0  0  0  0  0  0  0  0  0  0  0  0
   -8.1453    0.1767  -28.9195 H   0  0  0  0  0  0  0  0  0  0  0  0
   -8.2803    1.9041  -28.5599 H   0  0  0  0  0  0  0  0  0  0  0  0
  -10.2263   -0.2390  -27.6659 H   0  0  0  0  0  0  0  0  0  0  0  0
  -10.3360    1.4832  -27.3018 H   0  0  0  0  0  0  0  0  0  0  0  0
   -9.1571    1.4563  -24.9544 C   0  0  0  0  0  0  0  0  0  0  0  0
   -8.2795    1.2581  -23.7277 C   0  0  0  0  0  0  0  0  0  0  0  0
   -7.2370    1.5324  -23.9720 H   0  0  0  0  0  0  0  0  0  0  0  0
   -8.5976    1.9126  -22.9150 H   0  0  0  0  0  0  0  0  0  0  0  0
   -9.0116    2.4664  -25.3538 H   0  0  0  0  0  0  0  0  0  0  0  0
  -10.2149    1.3939  -24.6702 H   0  0  0  0  0  0  0  0  0  0  0  0
   -8.6833   -1.7062  -26.2182 H   0  0  0  0  0  0  0  0  0  0  0  0
  -10.0095   -1.1835  -25.2066 H   0  0  0  0  0  0  0  0  0  0  0  0
   -7.0191   -1.1724  -24.5296 H   0  0  0  0  0  0  0  0  0  0  0  0
   -8.2972   -2.1255  -23.7697 H   0  0  0  0  0  0  0  0  0  0  0  0
  1  2  2  0
  2  3  1  0
  3  4  1  0
  4  5  2  0
  5  6  1  0
  6  7  2  0
  7  8  1  0
  8  9  2  0
  9 10  1  0
 10 11  2  0
 11 12  1  0
 12 13  2  0
 12 14  1  0
 11 15  1  0
 10 16  1  0
  9 17  1  0
  7 18  1  0
  5 19  1  0
  3 20  1  0
  3 21  1  0
  2 22  1  0
 22 23  1  0
 23 24  1  0
 24 25  1  0
 25 26  1  0
 26 27  1  0
 27 28  1  0
 28 29  1  0
 28 30  1  0
 27 31  1  0
 27 32  1  0
 26 33  1  0
 26 34  1  0
 25 35  1  0
 35 36  1  0
 36 37  1  0
 36 38  1  0
 35 39  1  0
 35 40  1  0
 24 41  1  0
 24 42  1  0
 23 43  1  0
 23 44  1  0
 13  4  1  0
 36 22  1  0
 13  8  1  0
 28 25  1  0
M  END
>  <cnnaffinities>  (59) 
[4.85856, 4.80332, 4.80335, 4.80337, 4.80332, 4.63365, 4.63375, 4.63417, 4.75592, 4.75593, 5.08989, 5.08989, 5.08994, 5.08997]

>  <score>  (59) 
4.85856

>  <index>  (59) 
61

>  <Smiles>  (59) 
O=C(C(c1c(nc(c2c(c(c(c(c12)[H])[H])[H])[H])[H])[H])([H])[H])N1C(C(C2(C(C(C2([H])[H])([H])[H])([H])[H])C(C1([H])[H])([H])[H])([H])[H])([H])[H]

>  <h>  (59) 
<NA>

>  <Training>  (59) 
True

>  <Success>  (59) 
True

>  <enamine_searched>  (59) 
False

>  <enamine_id>  (59) 
nan

$$$$

     RDKit          3D

 44 47  0  0  0  0  0  0  0  0999 V2000
   -5.6902   -3.1632  -21.4082 O   0  0  0  0  0  0  0  0  0  0  0  0
   -6.7101   -2.7147  -21.9084 C   0  0  0  0  0  0  0  0  0  0  0  0
   -7.4010   -1.4736  -21.2800 C   0  0  0  0  0  0  0  0  0  0  0  0
   -6.5759   -0.8329  -20.1839 C   0  0  0  0  0  0  0  0  0  0  0  0
   -6.8734   -1.0475  -18.8652 C   0  0  0  0  0  0  0  0  0  0  0  0
   -6.1938   -0.5391  -17.8005 N   0  0  0  0  0  0  0  0  0  0  0  0
   -5.1595    0.2214  -18.0666 C   0  0  0  0  0  0  0  0  0  0  0  0
   -4.7213    0.5293  -19.3812 C   0  0  0  0  0  0  0  0  0  0  0  0
   -3.5927    1.3551  -19.6227 C   0  0  0  0  0  0  0  0  0  0  0  0
   -3.1935    1.6319  -20.9021 C   0  0  0  0  0  0  0  0  0  0  0  0
   -3.9042    1.0904  -21.9934 C   0  0  0  0  0  0  0  0  0  0  0  0
   -4.9997    0.2882  -21.7880 C   0  0  0  0  0  0  0  0  0  0  0  0
   -5.4437   -0.0128  -20.4733 C   0  0  0  0  0  0  0  0  0  0  0  0
   -5.5366   -0.1235  -22.6362 H   0  0  0  0  0  0  0  0  0  0  0  0
   -3.5823    1.3182  -23.0069 H   0  0  0  0  0  0  0  0  0  0  0  0
   -2.3322    2.2729  -21.0863 H   0  0  0  0  0  0  0  0  0  0  0  0
   -3.0603    1.7733  -18.7715 H   0  0  0  0  0  0  0  0  0  0  0  0
   -4.6045    0.6284  -17.2172 H   0  0  0  0  0  0  0  0  0  0  0  0
   -7.7226   -1.6735  -18.5875 H   0  0  0  0  0  0  0  0  0  0  0  0
   -8.3618   -1.8000  -20.8501 H   0  0  0  0  0  0  0  0  0  0  0  0
   -7.6563   -0.7267  -22.0455 H   0  0  0  0  0  0  0  0  0  0  0  0
   -7.2921   -3.2974  -23.0152 N   0  0  0  0  0  0  0  0  0  0  0  0
   -6.7587   -4.5608  -23.5232 C   0  0  0  0  0  0  0  0  0  0  0  0
   -7.8774   -5.5561  -23.8351 C   0  0  0  0  0  0  0  0  0  0  0  0
   -9.0379   -4.9493  -24.6627 C   0  0  0  0  0  0  0  0  0  0  0  0
   -9.3767   -5.8466  -25.8624 C   0  0  0  0  0  0  0  0  0  0  0  0
   -8.3741   -6.0669  -26.9640 C   0  0  0  0  0  0  0  0  0  0  0  0
   -9.6588   -5.3383  -27.2507 C   0  0  0  0  0  0  0  0  0  0  0  0
  -10.4094   -5.8448  -27.8581 H   0  0  0  0  0  0  0  0  0  0  0  0
   -9.6121   -4.2684  -27.4409 H   0  0  0  0  0  0  0  0  0  0  0  0
   -8.2432   -7.0675  -27.3810 H   0  0  0  0  0  0  0  0  0  0  0  0
   -7.4627   -5.4718  -26.9273 H   0  0  0  0  0  0  0  0  0  0  0  0
   -9.9362   -6.7416  -25.5858 H   0  0  0  0  0  0  0  0  0  0  0  0
   -8.7428   -3.4928  -25.0212 C   0  0  0  0  0  0  0  0  0  0  0  0
   -8.3579   -2.6703  -23.7947 C   0  0  0  0  0  0  0  0  0  0  0  0
   -8.0473   -1.6734  -24.1294 H   0  0  0  0  0  0  0  0  0  0  0  0
   -9.2426   -2.5286  -23.1609 H   0  0  0  0  0  0  0  0  0  0  0  0
   -9.6320   -3.0402  -25.4670 H   0  0  0  0  0  0  0  0  0  0  0  0
   -7.9616   -3.4197  -25.7867 H   0  0  0  0  0  0  0  0  0  0  0  0
   -9.9239   -4.9397  -24.0153 H   0  0  0  0  0  0  0  0  0  0  0  0
   -7.4443   -6.4134  -24.3613 H   0  0  0  0  0  0  0  0  0  0  0  0
   -8.2747   -5.9519  -22.8963 H   0  0  0  0  0  0  0  0  0  0  0  0
   -6.0864   -4.9692  -22.7698 H   0  0  0  0  0  0  0  0  0  0  0  0
   -6.1490   -4.3803  -24.4209 H   0  0  0  0  0  0  0  0  0  0  0  0
  1  2  2  0
  2  3  1  0
  3  4  1  0
  4  5  2  0
  5  6  1  0
  6  7  2  0
  7  8  1  0
  8  9  2  0
  9 10  1  0
 10 11  2  0
 11 12  1  0
 12 13  2  0
 12 14  1  0
 11 15  1  0
 10 16  1  0
  9 17  1  0
  7 18  1  0
  5 19  1  0
  3 20  1  0
  3 21  1  0
  2 22  1  0
 22 23  1  0
 23 24  1  0
 24 25  1  0
 25 26  1  0
 26 27  1  0
 27 28  1  0
 28 29  1  0
 28 30  1  0
 27 31  1  0
 27 32  1  0
 26 33  1  0
 25 34  1  0
 34 35  1  0
 35 36  1  0
 35 37  1  0
 34 38  1  0
 34 39  1  0
 25 40  1  0
 24 41  1  0
 24 42  1  0
 23 43  1  0
 23 44  1  0
 13  4  1  0
 35 22  1  0
 13  8  1  0
 28 26  1  0
M  END
>  <cnnaffinities>  (60) 
[5.02831, 4.76883, 4.70822, 4.89754, 4.89847, 4.69473]

>  <score>  (60) 
5.02831

>  <index>  (60) 
62

>  <Smiles>  (60) 
O=C(C(c1c(nc(c2c(c(c(c(c12)[H])[H])[H])[H])[H])[H])([H])[H])N1C(C(C(C2(C(C2([H])[H])([H])[H])[H])(C(C1([H])[H])([H])[H])[H])([H])[H])([H])[H]

>  <h>  (60) 
<NA>

>  <Training>  (60) 
True

>  <Success>  (60) 
True

>  <enamine_searched>  (60) 
False

>  <enamine_id>  (60) 
nan

$$$$

     RDKit          3D

 57 61  0  0  0  0  0  0  0  0999 V2000
   -8.1138   -5.7114  -27.5777 C   0  0  0  0  0  0  0  0  0  0  0  0
   -8.3879   -4.2948  -27.4132 N   0  0  0  0  0  0  0  0  0  0  0  0
   -7.3705   -3.4710  -27.0697 C   0  0  0  0  0  0  0  0  0  0  0  0
   -6.2339   -3.8777  -26.8645 O   0  0  0  0  0  0  0  0  0  0  0  0
   -7.7561   -1.9918  -26.9202 C   0  0  0  0  0  0  0  0  0  0  0  0
   -8.5897   -1.7623  -25.7409 N   0  0  0  0  0  0  0  0  0  0  0  0
   -7.9937   -1.2574  -24.5022 C   0  0  0  0  0  0  0  0  0  0  0  0
   -8.8033   -1.5775  -23.2092 C   0  0  2  0  0  0  0  0  0  0  0  0
   -8.2450   -0.6287  -22.1233 C   0  0  0  0  0  0  0  0  0  0  0  0
   -8.3830    0.5761  -22.0665 O   0  0  0  0  0  0  0  0  0  0  0  0
   -7.4829   -1.3607  -21.2311 N   0  0  0  0  0  0  0  0  0  0  0  0
   -6.6639   -0.7853  -20.2251 C   0  0  0  0  0  0  0  0  0  0  0  0
   -6.9478   -1.0605  -18.9107 C   0  0  0  0  0  0  0  0  0  0  0  0
   -6.2645   -0.5710  -17.8475 N   0  0  0  0  0  0  0  0  0  0  0  0
   -5.2323    0.1981  -18.1013 C   0  0  0  0  0  0  0  0  0  0  0  0
   -4.7840    0.5138  -19.4156 C   0  0  0  0  0  0  0  0  0  0  0  0
   -3.6399    1.3297  -19.6242 C   0  0  0  0  0  0  0  0  0  0  0  0
   -3.2002    1.5986  -20.8909 C   0  0  0  0  0  0  0  0  0  0  0  0
   -3.8809    1.0585  -22.0055 C   0  0  0  0  0  0  0  0  0  0  0  0
   -4.9963    0.2753  -21.8303 C   0  0  0  0  0  0  0  0  0  0  0  0
   -5.4968   -0.0011  -20.5240 C   0  0  0  0  0  0  0  0  0  0  0  0
   -5.5077   -0.1334  -22.6977 H   0  0  0  0  0  0  0  0  0  0  0  0
   -3.5241    1.2795  -23.0075 H   0  0  0  0  0  0  0  0  0  0  0  0
   -2.3327    2.2348  -21.0470 H   0  0  0  0  0  0  0  0  0  0  0  0
   -3.1380    1.7408  -18.7518 H   0  0  0  0  0  0  0  0  0  0  0  0
   -4.6831    0.6063  -17.2499 H   0  0  0  0  0  0  0  0  0  0  0  0
   -7.7944   -1.7021  -18.6685 H   0  0  0  0  0  0  0  0  0  0  0  0
   -7.4276   -2.7774  -21.5273 C   0  0  0  0  0  0  0  0  0  0  0  0
   -8.5448   -2.9776  -22.5480 C   0  0  2  0  0  0  0  0  0  0  0  0
   -8.2698   -4.1451  -23.4875 C   0  0  0  0  0  0  0  0  0  0  0  0
   -6.9214   -4.0819  -23.9194 O   0  0  0  0  0  0  0  0  0  0  0  0
   -6.8213   -4.5162  -24.7758 H   0  0  0  0  0  0  0  0  0  0  0  0
   -8.4512   -5.0896  -22.9524 H   0  0  0  0  0  0  0  0  0  0  0  0
   -8.9749   -4.0989  -24.3285 H   0  0  0  0  0  0  0  0  0  0  0  0
   -9.4729   -3.2020  -22.0015 H   0  0  0  0  0  0  0  0  0  0  0  0
   -6.4584   -3.0615  -21.9524 H   0  0  0  0  0  0  0  0  0  0  0  0
   -7.5839   -3.3719  -20.6217 H   0  0  0  0  0  0  0  0  0  0  0  0
  -10.2890   -1.3817  -23.4874 C   0  0  0  0  0  0  0  0  0  0  0  0
  -11.2153   -1.3393  -22.4308 C   0  0  0  0  0  0  0  0  0  0  0  0
  -12.5692   -1.2698  -22.7278 C   0  0  0  0  0  0  0  0  0  0  0  0
  -13.7597   -1.5062  -21.4961 Cl  0  0  0  0  0  0  0  0  0  0  0  0
  -13.0368   -1.0763  -24.0285 C   0  0  0  0  0  0  0  0  0  0  0  0
  -12.1292   -1.0918  -25.0627 C   0  0  0  0  0  0  0  0  0  0  0  0
  -10.7852   -1.3647  -24.8009 C   0  0  0  0  0  0  0  0  0  0  0  0
   -9.9337   -1.7852  -25.9493 C   0  0  0  0  0  0  0  0  0  0  0  0
  -10.4038   -2.1724  -27.0230 O   0  0  0  0  0  0  0  0  0  0  0  0
  -12.4475   -0.9615  -26.0930 H   0  0  0  0  0  0  0  0  0  0  0  0
  -14.1057   -0.9897  -24.1964 H   0  0  0  0  0  0  0  0  0  0  0  0
  -10.9067   -1.3673  -21.3845 H   0  0  0  0  0  0  0  0  0  0  0  0
   -6.9905   -1.6785  -24.4167 H   0  0  0  0  0  0  0  0  0  0  0  0
   -7.8818   -0.1665  -24.5471 H   0  0  0  0  0  0  0  0  0  0  0  0
   -6.8390   -1.3989  -26.8667 H   0  0  0  0  0  0  0  0  0  0  0  0
   -8.3452   -1.6811  -27.7941 H   0  0  0  0  0  0  0  0  0  0  0  0
   -9.3205   -3.9145  -27.5318 H   0  0  0  0  0  0  0  0  0  0  0  0
   -7.6810   -6.1334  -26.6627 H   0  0  0  0  0  0  0  0  0  0  0  0
   -9.0377   -6.2410  -27.8187 H   0  0  0  0  0  0  0  0  0  0  0  0
   -7.3792   -5.8729  -28.3728 H   0  0  0  0  0  0  0  0  0  0  0  0
  1  2  1  0
  2  3  1  0
  3  4  2  0
  3  5  1  0
  5  6  1  0
  6  7  1  0
  8  7  1  6
  8  9  1  0
  9 10  2  0
  9 11  1  0
 11 12  1  0
 12 13  2  0
 13 14  1  0
 14 15  2  0
 15 16  1  0
 16 17  2  0
 17 18  1  0
 18 19  2  0
 19 20  1  0
 20 21  2  0
 20 22  1  0
 19 23  1  0
 18 24  1  0
 17 25  1  0
 15 26  1  0
 13 27  1  0
 11 28  1  0
 28 29  1  0
 29 30  1  0
 30 31  1  0
 31 32  1  0
 30 33  1  0
 30 34  1  0
 29 35  1  1
 28 36  1  0
 28 37  1  0
  8 38  1  0
 38 39  2  0
 39 40  1  0
 40 41  1  0
 40 42  2  0
 42 43  1  0
 43 44  2  0
 44 45  1  0
 45 46  2  0
 43 47  1  0
 42 48  1  0
 39 49  1  0
  7 50  1  0
  7 51  1  0
  5 52  1  0
  5 53  1  0
  2 54  1  0
  1 55  1  0
  1 56  1  0
  1 57  1  0
 45  6  1  0
 29  8  1  0
 44 38  1  0
 21 12  1  0
 21 16  1  0
M  END
>  <cnnaffinities>  (61) 
[5.41315]

>  <score>  (61) 
5.41315

>  <index>  (61) 
63

>  <Smiles>  (61) 
C(N(C(=O)C(N1C([C@@]2(C(=O)N(c3c(nc(c4c(c(c(c(c34)[H])[H])[H])[H])[H])[H])C([C@@]2(C(O[H])([H])[H])[H])([H])[H])c2c(c(Cl)c(c(c2C1=O)[H])[H])[H])([H])[H])([H])[H])[H])([H])([H])[H]

>  <h>  (61) 
<NA>

>  <Training>  (61) 
True

>  <Success>  (61) 
True

>  <enamine_searched>  (61) 
False

>  <enamine_id>  (61) 
nan

$$$$

     RDKit          3D

 55 60  0  0  0  0  0  0  0  0999 V2000
   -9.9570   -0.7901  -23.5192 C   0  0  0  0  0  0  0  0  0  0  0  0
   -8.5907   -1.1645  -22.9412 C   0  0  1  0  0  0  0  0  0  0  0  0
   -8.1389   -0.2562  -21.7797 C   0  0  0  0  0  0  0  0  0  0  0  0
   -7.1996   -1.0912  -21.0384 N   0  0  0  0  0  0  0  0  0  0  0  0
   -6.3697   -0.6112  -19.9898 C   0  0  0  0  0  0  0  0  0  0  0  0
   -6.6452   -0.8826  -18.6722 C   0  0  0  0  0  0  0  0  0  0  0  0
   -5.9821   -0.3270  -17.6228 N   0  0  0  0  0  0  0  0  0  0  0  0
   -4.9883    0.4862  -17.8948 C   0  0  0  0  0  0  0  0  0  0  0  0
   -4.5408    0.7842  -19.2125 C   0  0  0  0  0  0  0  0  0  0  0  0
   -3.4129    1.6094  -19.4548 C   0  0  0  0  0  0  0  0  0  0  0  0
   -2.9917    1.8454  -20.7341 C   0  0  0  0  0  0  0  0  0  0  0  0
   -3.6839    1.2747  -21.8250 C   0  0  0  0  0  0  0  0  0  0  0  0
   -4.7903    0.4900  -21.6157 C   0  0  0  0  0  0  0  0  0  0  0  0
   -5.2453    0.2228  -20.2981 C   0  0  0  0  0  0  0  0  0  0  0  0
   -5.3242    0.0561  -22.4532 H   0  0  0  0  0  0  0  0  0  0  0  0
   -3.3419    1.4661  -22.8368 H   0  0  0  0  0  0  0  0  0  0  0  0
   -2.1227    2.4702  -20.9177 H   0  0  0  0  0  0  0  0  0  0  0  0
   -2.9076    2.0518  -18.6015 H   0  0  0  0  0  0  0  0  0  0  0  0
   -4.4662    0.9370  -17.0502 H   0  0  0  0  0  0  0  0  0  0  0  0
   -7.4517   -1.5638  -18.4065 H   0  0  0  0  0  0  0  0  0  0  0  0
   -7.3450   -2.4360  -21.3055 C   0  0  0  0  0  0  0  0  0  0  0  0
   -6.7029   -3.3200  -20.7749 O   0  0  0  0  0  0  0  0  0  0  0  0
   -8.4611   -2.6141  -22.3507 C   0  0  1  0  0  0  0  0  0  0  0  0
   -9.7223   -3.0789  -21.5795 C   0  0  0  0  0  0  0  0  0  0  0  0
  -10.7727   -3.5514  -22.4788 N   0  0  0  0  0  0  0  0  0  0  0  0
  -12.1580   -3.4443  -22.0288 C   0  0  0  0  0  0  0  0  0  0  0  0
  -12.9612   -2.3621  -22.6990 C   0  0  0  0  0  0  0  0  0  0  0  0
  -13.2326   -2.3114  -24.0394 N   0  0  0  0  0  0  0  0  0  0  0  0
  -14.0337   -1.2687  -24.1423 C   0  0  0  0  0  0  0  0  0  0  0  0
  -14.2102   -0.7150  -22.9355 N   0  0  0  0  0  0  0  0  0  0  0  0
  -13.5130   -1.3903  -21.9952 N   0  0  0  0  0  0  0  0  0  0  0  0
  -14.5949    0.1908  -22.7237 H   0  0  0  0  0  0  0  0  0  0  0  0
  -14.5243   -0.9135  -25.0385 H   0  0  0  0  0  0  0  0  0  0  0  0
  -12.1823   -3.2356  -20.9562 H   0  0  0  0  0  0  0  0  0  0  0  0
  -12.6428   -4.4086  -22.2047 H   0  0  0  0  0  0  0  0  0  0  0  0
  -10.4390   -4.5546  -23.3607 C   0  0  0  0  0  0  0  0  0  0  0  0
  -11.2177   -5.3839  -23.7846 O   0  0  0  0  0  0  0  0  0  0  0  0
   -9.0284   -4.5921  -23.8242 C   0  0  0  0  0  0  0  0  0  0  0  0
   -8.6998   -5.5800  -24.7539 C   0  0  0  0  0  0  0  0  0  0  0  0
   -7.4199   -5.6818  -25.2571 C   0  0  0  0  0  0  0  0  0  0  0  0
   -6.4748   -4.7790  -24.7825 C   0  0  0  0  0  0  0  0  0  0  0  0
   -5.2214   -4.8588  -25.2625 F   0  0  0  0  0  0  0  0  0  0  0  0
   -6.7692   -3.8095  -23.8392 C   0  0  0  0  0  0  0  0  0  0  0  0
   -8.0835   -3.6815  -23.3596 C   0  0  0  0  0  0  0  0  0  0  0  0
   -5.9598   -3.1938  -23.4582 H   0  0  0  0  0  0  0  0  0  0  0  0
   -7.1448   -6.4437  -25.9808 H   0  0  0  0  0  0  0  0  0  0  0  0
   -9.4767   -6.2720  -25.0553 H   0  0  0  0  0  0  0  0  0  0  0  0
   -9.4204   -3.8732  -20.8787 H   0  0  0  0  0  0  0  0  0  0  0  0
  -10.1153   -2.2572  -20.9737 H   0  0  0  0  0  0  0  0  0  0  0  0
   -7.6551    0.6637  -22.1239 H   0  0  0  0  0  0  0  0  0  0  0  0
   -8.9988    0.0350  -21.1484 H   0  0  0  0  0  0  0  0  0  0  0  0
   -7.8390   -1.1112  -23.7470 H   0  0  0  0  0  0  0  0  0  0  0  0
  -10.7296   -0.7066  -22.7427 H   0  0  0  0  0  0  0  0  0  0  0  0
   -9.9005    0.1693  -24.0404 H   0  0  0  0  0  0  0  0  0  0  0  0
  -10.2913   -1.5472  -24.2342 H   0  0  0  0  0  0  0  0  0  0  0  0
  1  2  1  0
  2  3  1  0
  3  4  1  0
  4  5  1  0
  5  6  2  0
  6  7  1  0
  7  8  2  0
  8  9  1  0
  9 10  2  0
 10 11  1  0
 11 12  2  0
 12 13  1  0
 13 14  2  0
 13 15  1  0
 12 16  1  0
 11 17  1  0
 10 18  1  0
  8 19  1  0
  6 20  1  0
  4 21  1  0
 21 22  2  0
 21 23  1  0
 23 24  1  1
 24 25  1  0
 25 26  1  0
 26 27  1  0
 27 28  1  0
 28 29  2  0
 29 30  1  0
 30 31  1  0
 30 32  1  0
 29 33  1  0
 26 34  1  0
 26 35  1  0
 25 36  1  0
 36 37  2  0
 36 38  1  0
 38 39  2  0
 39 40  1  0
 40 41  2  0
 41 42  1  0
 41 43  1  0
 43 44  2  0
 43 45  1  0
 40 46  1  0
 39 47  1  0
 24 48  1  0
 24 49  1  0
  3 50  1  0
  3 51  1  0
  2 52  1  6
  1 53  1  0
  1 54  1  0
  1 55  1  0
 23  2  1  0
 31 27  2  0
 44 38  1  0
 14  5  1  0
 44 23  1  0
 14  9  1  0
M  END
>  <cnnaffinities>  (62) 
[6.72709]

>  <score>  (62) 
6.72709

>  <index>  (62) 
64

>  <Smiles>  (62) 
C([C@]1(C(N(c2c(nc(c3c(c(c(c(c23)[H])[H])[H])[H])[H])[H])C(=O)[C@]21C(N(C(c1nc(n(n1)[H])[H])([H])[H])C(=O)c1c(c(c(F)c(c21)[H])[H])[H])([H])[H])([H])[H])[H])([H])([H])[H]

>  <h>  (62) 
<NA>

>  <Training>  (62) 
True

>  <Success>  (62) 
True

>  <enamine_searched>  (62) 
False

>  <enamine_id>  (62) 
nan

$$$$

     RDKit          3D

 55 60  0  0  0  0  0  0  0  0999 V2000
   -9.9847   -0.9085  -23.5285 C   0  0  0  0  0  0  0  0  0  0  0  0
   -8.6106   -1.2370  -22.9480 C   0  0  1  0  0  0  0  0  0  0  0  0
   -8.1772   -0.3110  -21.7961 C   0  0  0  0  0  0  0  0  0  0  0  0
   -7.2243   -1.1233  -21.0504 N   0  0  0  0  0  0  0  0  0  0  0  0
   -6.4009   -0.6263  -20.0043 C   0  0  0  0  0  0  0  0  0  0  0  0
   -6.6737   -0.9050  -18.6893 C   0  0  0  0  0  0  0  0  0  0  0  0
   -6.0121   -0.3511  -17.6370 N   0  0  0  0  0  0  0  0  0  0  0  0
   -5.0167    0.4622  -17.9003 C   0  0  0  0  0  0  0  0  0  0  0  0
   -4.5693    0.7698  -19.2172 C   0  0  0  0  0  0  0  0  0  0  0  0
   -3.4366    1.5888  -19.4695 C   0  0  0  0  0  0  0  0  0  0  0  0
   -3.0215    1.8183  -20.7506 C   0  0  0  0  0  0  0  0  0  0  0  0
   -3.7197    1.2532  -21.8422 C   0  0  0  0  0  0  0  0  0  0  0  0
   -4.8273    0.4729  -21.6262 C   0  0  0  0  0  0  0  0  0  0  0  0
   -5.2792    0.2126  -20.3074 C   0  0  0  0  0  0  0  0  0  0  0  0
   -5.3613    0.0296  -22.4611 H   0  0  0  0  0  0  0  0  0  0  0  0
   -3.3827    1.4378  -22.8568 H   0  0  0  0  0  0  0  0  0  0  0  0
   -2.1546    2.4430  -20.9453 H   0  0  0  0  0  0  0  0  0  0  0  0
   -2.9136    2.0303  -18.6240 H   0  0  0  0  0  0  0  0  0  0  0  0
   -4.4930    0.9072  -17.0504 H   0  0  0  0  0  0  0  0  0  0  0  0
   -7.4750   -1.5932  -18.4263 H   0  0  0  0  0  0  0  0  0  0  0  0
   -7.3387   -2.4740  -21.3125 C   0  0  0  0  0  0  0  0  0  0  0  0
   -6.6799   -3.3391  -20.7798 O   0  0  0  0  0  0  0  0  0  0  0  0
   -8.4486   -2.6807  -22.3554 C   0  0  1  0  0  0  0  0  0  0  0  0
   -9.7059   -3.1739  -21.5926 C   0  0  0  0  0  0  0  0  0  0  0  0
  -10.7486   -3.6662  -22.4881 N   0  0  0  0  0  0  0  0  0  0  0  0
  -12.1561   -3.5145  -22.0916 C   0  0  0  0  0  0  0  0  0  0  0  0
  -12.9222   -2.4051  -22.7572 C   0  0  0  0  0  0  0  0  0  0  0  0
  -13.5108   -2.3055  -23.9720 C   0  0  0  0  0  0  0  0  0  0  0  0
  -14.1701   -1.1111  -24.0367 O   0  0  0  0  0  0  0  0  0  0  0  0
  -13.9564   -0.5510  -22.8344 C   0  0  0  0  0  0  0  0  0  0  0  0
  -13.2255   -1.2524  -22.0373 N   0  0  0  0  0  0  0  0  0  0  0  0
  -14.4522    0.3880  -22.6262 H   0  0  0  0  0  0  0  0  0  0  0  0
  -13.6269   -2.9335  -24.8394 H   0  0  0  0  0  0  0  0  0  0  0  0
  -12.1738   -3.2655  -21.0276 H   0  0  0  0  0  0  0  0  0  0  0  0
  -12.6453   -4.4830  -22.2457 H   0  0  0  0  0  0  0  0  0  0  0  0
  -10.3984   -4.6271  -23.4068 C   0  0  0  0  0  0  0  0  0  0  0  0
  -11.1702   -5.4347  -23.8814 O   0  0  0  0  0  0  0  0  0  0  0  0
   -8.9765   -4.6565  -23.8474 C   0  0  0  0  0  0  0  0  0  0  0  0
   -8.6306   -5.6285  -24.7894 C   0  0  0  0  0  0  0  0  0  0  0  0
   -7.3517   -5.6925  -25.3002 C   0  0  0  0  0  0  0  0  0  0  0  0
   -6.4238   -4.7802  -24.8076 C   0  0  0  0  0  0  0  0  0  0  0  0
   -5.1724   -4.8313  -25.2941 F   0  0  0  0  0  0  0  0  0  0  0  0
   -6.7329   -3.8393  -23.8407 C   0  0  0  0  0  0  0  0  0  0  0  0
   -8.0482   -3.7390  -23.3637 C   0  0  0  0  0  0  0  0  0  0  0  0
   -5.9314   -3.2312  -23.4359 H   0  0  0  0  0  0  0  0  0  0  0  0
   -7.0697   -6.4317  -26.0452 H   0  0  0  0  0  0  0  0  0  0  0  0
   -9.3984   -6.3300  -25.0996 H   0  0  0  0  0  0  0  0  0  0  0  0
  -10.1363   -2.3695  -20.9939 H   0  0  0  0  0  0  0  0  0  0  0  0
   -9.3919   -3.9552  -20.8854 H   0  0  0  0  0  0  0  0  0  0  0  0
   -9.0398   -0.0383  -21.1665 H   0  0  0  0  0  0  0  0  0  0  0  0
   -7.7266    0.6261  -22.1410 H   0  0  0  0  0  0  0  0  0  0  0  0
   -7.8642   -1.1599  -23.7527 H   0  0  0  0  0  0  0  0  0  0  0  0
   -9.9671    0.0426  -24.0700 H   0  0  0  0  0  0  0  0  0  0  0  0
  -10.2903   -1.6917  -24.2306 H   0  0  0  0  0  0  0  0  0  0  0  0
  -10.7529   -0.8362  -22.7488 H   0  0  0  0  0  0  0  0  0  0  0  0
  1  2  1  0
  2  3  1  0
  3  4  1  0
  4  5  1  0
  5  6  2  0
  6  7  1  0
  7  8  2  0
  8  9  1  0
  9 10  2  0
 10 11  1  0
 11 12  2  0
 12 13  1  0
 13 14  2  0
 13 15  1  0
 12 16  1  0
 11 17  1  0
 10 18  1  0
  8 19  1  0
  6 20  1  0
  4 21  1  0
 21 22  2  0
 21 23  1  0
 23 24  1  1
 24 25  1  0
 25 26  1  0
 26 27  1  0
 27 28  2  0
 28 29  1  0
 29 30  1  0
 30 31  2  0
 30 32  1  0
 28 33  1  0
 26 34  1  0
 26 35  1  0
 25 36  1  0
 36 37  2  0
 36 38  1  0
 38 39  2  0
 39 40  1  0
 40 41  2  0
 41 42  1  0
 41 43  1  0
 43 44  2  0
 43 45  1  0
 40 46  1  0
 39 47  1  0
 24 48  1  0
 24 49  1  0
  3 50  1  0
  3 51  1  0
  2 52  1  6
  1 53  1  0
  1 54  1  0
  1 55  1  0
 23  2  1  0
 31 27  1  0
 44 38  1  0
 14  5  1  0
 44 23  1  0
 14  9  1  0
M  END
>  <cnnaffinities>  (63) 
[6.52438, 6.4905]

>  <score>  (63) 
6.52438

>  <index>  (63) 
65

>  <Smiles>  (63) 
C([C@]1(C(N(c2c(nc(c3c(c(c(c(c23)[H])[H])[H])[H])[H])[H])C(=O)[C@]21C(N(C(c1c(oc(n1)[H])[H])([H])[H])C(=O)c1c(c(c(F)c(c21)[H])[H])[H])([H])[H])([H])[H])[H])([H])([H])[H]

>  <h>  (63) 
<NA>

>  <Training>  (63) 
True

>  <Success>  (63) 
True

>  <enamine_searched>  (63) 
False

>  <enamine_id>  (63) 
nan

$$$$

     RDKit          3D

 44 47  0  0  0  0  0  0  0  0999 V2000
   -7.9247   -5.9464  -23.4847 C   0  0  0  0  0  0  0  0  0  0  0  0
   -6.4847   -5.5053  -23.2828 C   0  0  0  0  0  0  0  0  0  0  0  0
   -6.1818   -4.1026  -23.8572 C   0  0  1  0  0  0  0  0  0  0  0  0
   -6.2698   -4.0988  -25.3618 C   0  0  0  0  0  0  0  0  0  0  0  0
   -5.3165   -4.6950  -26.2503 C   0  0  0  0  0  0  0  0  0  0  0  0
   -5.7022   -4.6231  -27.5556 C   0  0  0  0  0  0  0  0  0  0  0  0
   -7.2316   -3.8423  -27.7310 S   0  0  0  0  0  0  0  0  0  0  0  0
   -7.3511   -3.6100  -26.0212 C   0  0  0  0  0  0  0  0  0  0  0  0
   -8.5089   -3.0250  -25.2862 C   0  0  0  0  0  0  0  0  0  0  0  0
   -8.0451   -2.3209  -24.0056 C   0  0  0  0  0  0  0  0  0  0  0  0
   -7.0154   -3.0404  -23.2414 N   0  0  0  0  0  0  0  0  0  0  0  0
   -6.6806   -2.6646  -21.9543 C   0  0  0  0  0  0  0  0  0  0  0  0
   -5.8180   -3.2563  -21.3265 O   0  0  0  0  0  0  0  0  0  0  0  0
   -7.3977   -1.4625  -21.2860 C   0  0  0  0  0  0  0  0  0  0  0  0
   -6.5782   -0.8297  -20.1815 C   0  0  0  0  0  0  0  0  0  0  0  0
   -6.8728   -1.0462  -18.8584 C   0  0  0  0  0  0  0  0  0  0  0  0
   -6.1917   -0.5386  -17.7936 N   0  0  0  0  0  0  0  0  0  0  0  0
   -5.1582    0.2238  -18.0625 C   0  0  0  0  0  0  0  0  0  0  0  0
   -4.7207    0.5313  -19.3810 C   0  0  0  0  0  0  0  0  0  0  0  0
   -3.5912    1.3579  -19.6221 C   0  0  0  0  0  0  0  0  0  0  0  0
   -3.1922    1.6369  -20.9023 C   0  0  0  0  0  0  0  0  0  0  0  0
   -3.9064    1.0966  -21.9944 C   0  0  0  0  0  0  0  0  0  0  0  0
   -5.0034    0.2965  -21.7855 C   0  0  0  0  0  0  0  0  0  0  0  0
   -5.4455   -0.0080  -20.4710 C   0  0  0  0  0  0  0  0  0  0  0  0
   -5.5384   -0.1122  -22.6363 H   0  0  0  0  0  0  0  0  0  0  0  0
   -3.5863    1.3230  -23.0063 H   0  0  0  0  0  0  0  0  0  0  0  0
   -2.3320    2.2744  -21.0882 H   0  0  0  0  0  0  0  0  0  0  0  0
   -3.0546    1.7748  -18.7729 H   0  0  0  0  0  0  0  0  0  0  0  0
   -4.6003    0.6292  -17.2166 H   0  0  0  0  0  0  0  0  0  0  0  0
   -7.7209   -1.6718  -18.5872 H   0  0  0  0  0  0  0  0  0  0  0  0
   -7.6831   -0.6952  -22.0166 H   0  0  0  0  0  0  0  0  0  0  0  0
   -8.3335   -1.8391  -20.8492 H   0  0  0  0  0  0  0  0  0  0  0  0
   -8.9212   -2.1643  -23.3666 H   0  0  0  0  0  0  0  0  0  0  0  0
   -7.6719   -1.3265  -24.2830 H   0  0  0  0  0  0  0  0  0  0  0  0
   -9.2216   -3.8261  -25.0472 H   0  0  0  0  0  0  0  0  0  0  0  0
   -9.0572   -2.3208  -25.9158 H   0  0  0  0  0  0  0  0  0  0  0  0
   -5.1789   -4.9923  -28.4271 H   0  0  0  0  0  0  0  0  0  0  0  0
   -4.3929   -5.1709  -25.9289 H   0  0  0  0  0  0  0  0  0  0  0  0
   -5.1370   -3.8777  -23.6033 H   0  0  0  0  0  0  0  0  0  0  0  0
   -5.8133   -6.2183  -23.7788 H   0  0  0  0  0  0  0  0  0  0  0  0
   -6.2234   -5.5069  -22.2224 H   0  0  0  0  0  0  0  0  0  0  0  0
   -8.0908   -6.9236  -23.0259 H   0  0  0  0  0  0  0  0  0  0  0  0
   -8.1820   -6.0214  -24.5461 H   0  0  0  0  0  0  0  0  0  0  0  0
   -8.6149   -5.2364  -23.0224 H   0  0  0  0  0  0  0  0  0  0  0  0
  1  2  1  0
  2  3  1  0
  3  4  1  0
  4  5  1  0
  5  6  2  0
  6  7  1  0
  7  8  1  0
  8  9  1  0
  9 10  1  0
 10 11  1  0
 11 12  1  0
 12 13  2  0
 12 14  1  0
 14 15  1  0
 15 16  2  0
 16 17  1  0
 17 18  2  0
 18 19  1  0
 19 20  2  0
 20 21  1  0
 21 22  2  0
 22 23  1  0
 23 24  2  0
 23 25  1  0
 22 26  1  0
 21 27  1  0
 20 28  1  0
 18 29  1  0
 16 30  1  0
 14 31  1  0
 14 32  1  0
 10 33  1  0
 10 34  1  0
  9 35  1  0
  9 36  1  0
  6 37  1  0
  5 38  1  0
  3 39  1  6
  2 40  1  0
  2 41  1  0
  1 42  1  0
  1 43  1  0
  1 44  1  0
 11  3  1  0
 24 15  1  0
  8  4  2  0
 24 19  1  0
M  END
>  <cnnaffinities>  (64) 
[5.22621, 4.91074, 5.3784]

>  <score>  (64) 
5.22621

>  <index>  (64) 
66

>  <Smiles>  (64) 
C(C([C@]1(c2c(c(sc2C(C(N1C(=O)C(c1c(nc(c2c(c(c(c(c12)[H])[H])[H])[H])[H])[H])([H])[H])([H])[H])([H])[H])[H])[H])[H])([H])[H])([H])([H])[H]

>  <h>  (64) 
<NA>

>  <Training>  (64) 
True

>  <Success>  (64) 
True

>  <enamine_searched>  (64) 
False

>  <enamine_id>  (64) 
nan

$$$$

     RDKit          3D

 58 63  0  0  0  0  0  0  0  0999 V2000
  -14.9197    0.2606  -22.8527 C   0  0  0  0  0  0  0  0  0  0  0  0
  -13.9228   -0.8542  -22.8229 C   0  0  0  0  0  0  0  0  0  0  0  0
  -13.5750   -1.7718  -21.7951 C   0  0  0  0  0  0  0  0  0  0  0  0
  -12.7188   -2.6298  -22.3983 C   0  0  0  0  0  0  0  0  0  0  0  0
  -12.0228   -3.9008  -22.0091 C   0  0  0  0  0  0  0  0  0  0  0  0
  -10.6326   -3.9660  -22.4363 N   0  0  0  0  0  0  0  0  0  0  0  0
   -9.6276   -3.3514  -21.5787 C   0  0  0  0  0  0  0  0  0  0  0  0
   -8.3924   -2.8141  -22.3517 C   0  0  2  0  0  0  0  0  0  0  0  0
   -7.2913   -2.5973  -21.2948 C   0  0  0  0  0  0  0  0  0  0  0  0
   -6.6553   -3.4604  -20.7216 O   0  0  0  0  0  0  0  0  0  0  0  0
   -7.1570   -1.2467  -21.0607 N   0  0  0  0  0  0  0  0  0  0  0  0
   -6.3596   -0.7284  -20.0155 C   0  0  0  0  0  0  0  0  0  0  0  0
   -6.6710   -0.9610  -18.6997 C   0  0  0  0  0  0  0  0  0  0  0  0
   -6.0283   -0.3797  -17.6532 N   0  0  0  0  0  0  0  0  0  0  0  0
   -5.0272    0.4244  -17.9250 C   0  0  0  0  0  0  0  0  0  0  0  0
   -4.5707    0.7070  -19.2428 C   0  0  0  0  0  0  0  0  0  0  0  0
   -3.4563    1.5496  -19.4831 C   0  0  0  0  0  0  0  0  0  0  0  0
   -3.0383    1.8006  -20.7603 C   0  0  0  0  0  0  0  0  0  0  0  0
   -3.7237    1.2270  -21.8554 C   0  0  0  0  0  0  0  0  0  0  0  0
   -4.8118    0.4143  -21.6475 C   0  0  0  0  0  0  0  0  0  0  0  0
   -5.2563    0.1272  -20.3290 C   0  0  0  0  0  0  0  0  0  0  0  0
   -5.3417   -0.0183  -22.4887 H   0  0  0  0  0  0  0  0  0  0  0  0
   -3.3931    1.4405  -22.8673 H   0  0  0  0  0  0  0  0  0  0  0  0
   -2.1825    2.4463  -20.9409 H   0  0  0  0  0  0  0  0  0  0  0  0
   -2.9635    1.9962  -18.6248 H   0  0  0  0  0  0  0  0  0  0  0  0
   -4.5116    0.8936  -17.0848 H   0  0  0  0  0  0  0  0  0  0  0  0
   -7.4906   -1.6264  -18.4325 H   0  0  0  0  0  0  0  0  0  0  0  0
   -8.1047   -0.4388  -21.8006 C   0  0  0  0  0  0  0  0  0  0  0  0
   -8.5369   -1.3631  -22.9430 C   0  0  2  0  0  0  0  0  0  0  0  0
   -9.8901   -0.9584  -23.4994 C   0  0  0  0  0  0  0  0  0  0  0  0
   -9.8462    0.0115  -24.0136 H   0  0  0  0  0  0  0  0  0  0  0  0
  -10.6271   -0.8732  -22.6904 H   0  0  0  0  0  0  0  0  0  0  0  0
  -10.2475   -1.7081  -24.2044 H   0  0  0  0  0  0  0  0  0  0  0  0
   -7.7884   -1.3224  -23.7533 H   0  0  0  0  0  0  0  0  0  0  0  0
   -7.6470    0.4854  -22.1647 H   0  0  0  0  0  0  0  0  0  0  0  0
   -8.9656   -0.1552  -21.1686 H   0  0  0  0  0  0  0  0  0  0  0  0
   -7.9808   -3.8413  -23.3849 C   0  0  0  0  0  0  0  0  0  0  0  0
   -6.6784   -3.8763  -23.8881 C   0  0  0  0  0  0  0  0  0  0  0  0
   -6.3486   -4.7877  -24.8723 C   0  0  0  0  0  0  0  0  0  0  0  0
   -5.1009   -4.7816  -25.3610 F   0  0  0  0  0  0  0  0  0  0  0  0
   -7.2495   -5.7029  -25.3983 C   0  0  0  0  0  0  0  0  0  0  0  0
   -8.5269   -5.6812  -24.8922 C   0  0  0  0  0  0  0  0  0  0  0  0
   -8.8780   -4.7742  -23.8950 C   0  0  0  0  0  0  0  0  0  0  0  0
  -10.2909   -4.8080  -23.4605 C   0  0  0  0  0  0  0  0  0  0  0  0
  -11.0724   -5.5399  -24.0483 O   0  0  0  0  0  0  0  0  0  0  0  0
   -9.2952   -6.3578  -25.2468 H   0  0  0  0  0  0  0  0  0  0  0  0
   -6.9505   -6.4077  -26.1640 H   0  0  0  0  0  0  0  0  0  0  0  0
   -5.9157   -3.2129  -23.5058 H   0  0  0  0  0  0  0  0  0  0  0  0
   -9.2629   -4.0475  -20.8049 H   0  0  0  0  0  0  0  0  0  0  0  0
  -10.1178   -2.5345  -21.0463 H   0  0  0  0  0  0  0  0  0  0  0  0
  -12.5257   -4.7299  -22.5118 H   0  0  0  0  0  0  0  0  0  0  0  0
  -12.0926   -4.0434  -20.9235 H   0  0  0  0  0  0  0  0  0  0  0  0
  -12.5399   -2.2542  -23.6779 O   0  0  0  0  0  0  0  0  0  0  0  0
  -13.2934   -1.1255  -23.9383 N   0  0  0  0  0  0  0  0  0  0  0  0
  -14.0073   -1.8428  -20.8065 H   0  0  0  0  0  0  0  0  0  0  0  0
  -15.7643   -0.0855  -23.4356 H   0  0  0  0  0  0  0  0  0  0  0  0
  -14.4782    1.1364  -23.3327 H   0  0  0  0  0  0  0  0  0  0  0  0
  -15.3522    0.5431  -21.8974 H   0  0  0  0  0  0  0  0  0  0  0  0
  1  2  1  0
  2  3  1  0
  3  4  2  0
  4  5  1  0
  5  6  1  0
  6  7  1  0
  8  7  1  1
  8  9  1  0
  9 10  2  0
  9 11  1  0
 11 12  1  0
 12 13  2  0
 13 14  1  0
 14 15  2  0
 15 16  1  0
 16 17  2  0
 17 18  1  0
 18 19  2  0
 19 20  1  0
 20 21  2  0
 20 22  1  0
 19 23  1  0
 18 24  1  0
 17 25  1  0
 15 26  1  0
 13 27  1  0
 11 28  1  0
 28 29  1  0
 29 30  1  0
 30 31  1  0
 30 32  1  0
 30 33  1  0
 29 34  1  6
 28 35  1  0
 28 36  1  0
  8 37  1  0
 37 38  2  0
 38 39  1  0
 39 40  1  0
 39 41  2  0
 41 42  1  0
 42 43  2  0
 43 44  1  0
 44 45  2  0
 42 46  1  0
 41 47  1  0
 38 48  1  0
  7 49  1  0
  7 50  1  0
  5 51  1  0
  5 52  1  0
  4 53  1  0
 53 54  1  0
  3 55  1  0
  1 56  1  0
  1 57  1  0
  1 58  1  0
 54  2  2  0
 44  6  1  0
 29  8  1  0
 43 37  1  0
 21 12  1  0
 21 16  1  0
M  END
>  <cnnaffinities>  (65) 
[6.47548, 6.21237]

>  <score>  (65) 
6.47548

>  <index>  (65) 
67

>  <Smiles>  (65) 
C(c1c(c(C(N2C([C@@]3(C(=O)N(c4c(nc(c5c(c(c(c(c45)[H])[H])[H])[H])[H])[H])C([C@@]3(C([H])([H])[H])[H])([H])[H])c3c(c(F)c(c(c3C2=O)[H])[H])[H])([H])[H])([H])[H])on1)[H])([H])([H])[H]

>  <h>  (65) 
<NA>

>  <Training>  (65) 
True

>  <Success>  (65) 
True

>  <enamine_searched>  (65) 
False

>  <enamine_id>  (65) 
nan

$$$$

     RDKit          3D

 65 70  0  0  0  0  0  0  0  0999 V2000
   -5.6299   -3.1786  -21.3398 O   0  0  0  0  0  0  0  0  0  0  0  0
   -6.5998   -2.7172  -21.9236 C   0  0  0  0  0  0  0  0  0  0  0  0
   -7.3397   -1.5165  -21.3186 C   0  0  0  0  0  0  0  0  0  0  0  0
   -6.5656   -0.8591  -20.2127 C   0  0  0  0  0  0  0  0  0  0  0  0
   -6.8975   -1.0677  -18.9006 C   0  0  0  0  0  0  0  0  0  0  0  0
   -6.2411   -0.5496  -17.8254 N   0  0  0  0  0  0  0  0  0  0  0  0
   -5.1987    0.2048  -18.0825 C   0  0  0  0  0  0  0  0  0  0  0  0
   -4.7279    0.4959  -19.3911 C   0  0  0  0  0  0  0  0  0  0  0  0
   -3.6027    1.3290  -19.6183 C   0  0  0  0  0  0  0  0  0  0  0  0
   -3.1901    1.6115  -20.8918 C   0  0  0  0  0  0  0  0  0  0  0  0
   -3.8892    1.0750  -21.9980 C   0  0  0  0  0  0  0  0  0  0  0  0
   -4.9811    0.2671  -21.8038 C   0  0  0  0  0  0  0  0  0  0  0  0
   -5.4310   -0.0467  -20.4927 C   0  0  0  0  0  0  0  0  0  0  0  0
   -5.5217   -0.1241  -22.6609 H   0  0  0  0  0  0  0  0  0  0  0  0
   -3.5692    1.3216  -23.0062 H   0  0  0  0  0  0  0  0  0  0  0  0
   -2.3360    2.2605  -21.0630 H   0  0  0  0  0  0  0  0  0  0  0  0
   -3.0956    1.7581  -18.7560 H   0  0  0  0  0  0  0  0  0  0  0  0
   -4.6669    0.6306  -17.2294 H   0  0  0  0  0  0  0  0  0  0  0  0
   -7.7534   -1.6943  -18.6542 H   0  0  0  0  0  0  0  0  0  0  0  0
   -8.2965   -1.8892  -20.9287 H   0  0  0  0  0  0  0  0  0  0  0  0
   -7.5874   -0.8019  -22.1071 H   0  0  0  0  0  0  0  0  0  0  0  0
   -7.0993   -3.2430  -23.1081 N   0  0  0  0  0  0  0  0  0  0  0  0
   -7.8514   -2.4413  -24.0619 C   0  0  0  0  0  0  0  0  0  0  0  0
   -9.3129   -2.1708  -23.7391 C   0  0  0  0  0  0  0  0  0  0  0  0
   -9.9284   -1.0556  -24.3154 C   0  0  0  0  0  0  0  0  0  0  0  0
  -11.2608   -0.7577  -24.0462 C   0  0  0  0  0  0  0  0  0  0  0  0
  -12.0106   -1.5701  -23.2027 C   0  0  0  0  0  0  0  0  0  0  0  0
  -11.3969   -2.6808  -22.6399 C   0  0  0  0  0  0  0  0  0  0  0  0
  -12.3195   -3.7120  -21.5804 Cl  0  0  0  0  0  0  0  0  0  0  0  0
  -10.0655   -2.9908  -22.8957 C   0  0  0  0  0  0  0  0  0  0  0  0
   -9.6343   -3.8587  -22.4104 H   0  0  0  0  0  0  0  0  0  0  0  0
  -13.0492   -1.3515  -22.9765 H   0  0  0  0  0  0  0  0  0  0  0  0
  -11.7194    0.1209  -24.4928 H   0  0  0  0  0  0  0  0  0  0  0  0
   -9.3575   -0.4091  -24.9766 H   0  0  0  0  0  0  0  0  0  0  0  0
   -7.7830   -2.9357  -25.0337 H   0  0  0  0  0  0  0  0  0  0  0  0
   -7.3350   -1.4814  -24.1946 H   0  0  0  0  0  0  0  0  0  0  0  0
   -6.7625   -4.6264  -23.4682 C   0  0  2  0  0  0  0  0  0  0  0  0
   -7.6990   -5.3134  -24.4931 C   0  0  0  0  0  0  0  0  0  0  0  0
   -7.4824   -6.8276  -24.2379 C   0  0  0  0  0  0  0  0  0  0  0  0
   -6.4583   -6.8199  -23.1083 C   0  0  2  0  0  0  0  0  0  0  0  0
   -6.8476   -5.6005  -22.2964 C   0  0  0  0  0  0  0  0  0  0  0  0
   -6.1305   -5.3253  -21.5204 H   0  0  0  0  0  0  0  0  0  0  0  0
   -7.8621   -5.6240  -21.8778 H   0  0  0  0  0  0  0  0  0  0  0  0
   -5.1158   -6.3935  -23.7409 N   0  0  2  0  0  4  0  0  0  0  0  0
   -3.9326   -6.7487  -22.8825 C   0  0  0  0  0  0  0  0  0  0  0  0
   -3.0842   -7.9327  -23.3671 C   0  0  0  0  0  0  0  0  0  0  0  0
   -3.7875   -9.0372  -24.1611 C   0  0  0  0  0  0  0  0  0  0  0  0
   -3.5101   -8.3465  -25.3925 O   0  0  0  0  0  0  0  0  0  0  0  0
   -2.4272   -7.6604  -24.7265 C   0  0  0  0  0  0  0  0  0  0  0  0
   -2.3772   -6.6107  -25.0313 H   0  0  0  0  0  0  0  0  0  0  0  0
   -1.4524   -8.1662  -24.8540 H   0  0  0  0  0  0  0  0  0  0  0  0
   -3.2078   -9.9722  -24.0785 H   0  0  0  0  0  0  0  0  0  0  0  0
   -4.8575   -9.2309  -24.0320 H   0  0  0  0  0  0  0  0  0  0  0  0
   -2.4570   -8.2806  -22.5448 H   0  0  0  0  0  0  0  0  0  0  0  0
   -3.2689   -5.8785  -22.8334 H   0  0  0  0  0  0  0  0  0  0  0  0
   -4.2892   -6.9196  -21.8616 H   0  0  0  0  0  0  0  0  0  0  0  0
   -5.3147   -4.8808  -23.9515 C   0  0  0  0  0  0  0  0  0  0  0  0
   -4.6129   -4.3390  -23.3169 H   0  0  0  0  0  0  0  0  0  0  0  0
   -5.1295   -4.6334  -24.9990 H   0  0  0  0  0  0  0  0  0  0  0  0
   -4.9798   -6.8639  -24.6496 H   0  0  0  0  0  0  0  0  0  0  0  0
   -6.3350   -7.7525  -22.5561 H   0  0  0  0  0  0  0  0  0  0  0  0
   -8.4108   -7.3192  -23.9324 H   0  0  0  0  0  0  0  0  0  0  0  0
   -7.0838   -7.3655  -25.1052 H   0  0  0  0  0  0  0  0  0  0  0  0
   -7.4669   -5.0343  -25.5245 H   0  0  0  0  0  0  0  0  0  0  0  0
   -8.7347   -5.0283  -24.2867 H   0  0  0  0  0  0  0  0  0  0  0  0
  1  2  2  0
  2  3  1  0
  3  4  1  0
  4  5  2  0
  5  6  1  0
  6  7  2  0
  7  8  1  0
  8  9  2  0
  9 10  1  0
 10 11  2  0
 11 12  1  0
 12 13  2  0
 12 14  1  0
 11 15  1  0
 10 16  1  0
  9 17  1  0
  7 18  1  0
  5 19  1  0
  3 20  1  0
  3 21  1  0
  2 22  1  0
 22 23  1  0
 23 24  1  0
 24 25  2  0
 25 26  1  0
 26 27  2  0
 27 28  1  0
 28 29  1  0
 28 30  2  0
 30 31  1  0
 27 32  1  0
 26 33  1  0
 25 34  1  0
 23 35  1  0
 23 36  1  0
 37 22  1  1
 37 38  1  0
 38 39  1  0
 39 40  1  0
 40 41  1  0
 41 42  1  0
 41 43  1  0
 40 44  1  0
 44 45  1  0
 45 46  1  0
 46 47  1  0
 47 48  1  0
 48 49  1  0
 49 50  1  0
 49 51  1  0
 47 52  1  0
 47 53  1  0
 46 54  1  0
 45 55  1  0
 45 56  1  0
 44 57  1  0
 57 58  1  0
 57 59  1  0
 44 60  1  6
 40 61  1  1
 39 62  1  0
 39 63  1  0
 38 64  1  0
 38 65  1  0
 13  4  1  0
 30 24  1  0
 41 37  1  0
 49 46  1  0
 13  8  1  0
 57 37  1  0
M  CHG  1  44   1
M  END
>  <cnnaffinities>  (66) 
[5.76148, 5.89522]

>  <score>  (66) 
5.76148

>  <index>  (66) 
68

>  <Smiles>  (66) 
O=C(C(c1c(nc(c2c(c(c(c(c12)[H])[H])[H])[H])[H])[H])([H])[H])N(C(c1c(c(c(c(Cl)c1[H])[H])[H])[H])([H])[H])[C@]12C(C([C@](C1([H])[H])([N@+](C(C1(C(OC1([H])[H])([H])[H])[H])([H])[H])(C2([H])[H])[H])[H])([H])[H])([H])[H]

>  <h>  (66) 
<NA>

>  <Training>  (66) 
True

>  <Success>  (66) 
True

>  <enamine_searched>  (66) 
False

>  <enamine_id>  (66) 
nan

$$$$

     RDKit          3D

 63 67  0  0  0  0  0  0  0  0999 V2000
  -12.3441    6.3711  -23.9733 C   0  0  0  0  0  0  0  0  0  0  0  0
  -11.4929    5.3641  -23.8403 C   0  0  0  0  0  0  0  0  0  0  0  0
  -10.5720    5.0606  -24.9721 C   0  0  0  0  0  0  0  0  0  0  0  0
  -10.3797    5.8456  -25.8920 O   0  0  0  0  0  0  0  0  0  0  0  0
   -9.8797    3.8644  -24.9037 N   0  0  0  0  0  0  0  0  0  0  0  0
   -8.5601    3.8618  -25.5140 C   0  0  0  0  0  0  0  0  0  0  0  0
   -7.6041    3.1936  -24.5514 C   0  0  0  0  0  0  0  0  0  0  0  0
   -8.0397    1.7508  -24.3584 C   0  0  0  0  0  0  0  0  0  0  0  0
   -9.5191    1.6195  -24.0394 C   0  0  0  0  0  0  0  0  0  0  0  0
  -10.4051    2.6541  -24.3956 C   0  0  0  0  0  0  0  0  0  0  0  0
  -11.7918    2.4632  -24.2969 C   0  0  0  0  0  0  0  0  0  0  0  0
  -12.2942    1.2838  -23.7802 C   0  0  0  0  0  0  0  0  0  0  0  0
  -11.4271    0.2848  -23.3427 C   0  0  0  0  0  0  0  0  0  0  0  0
  -10.0542    0.4580  -23.4768 C   0  0  0  0  0  0  0  0  0  0  0  0
   -9.1516   -0.6807  -23.0055 N   0  0  1  0  0  4  0  0  0  0  0  0
   -8.3679   -1.3950  -24.2096 C   0  0  0  0  0  0  0  0  0  0  0  0
   -8.4131   -2.9137  -24.1864 C   0  0  0  0  0  0  0  0  0  0  0  0
   -7.2085   -3.6157  -24.0913 C   0  0  0  0  0  0  0  0  0  0  0  0
   -7.1751   -5.0031  -24.1095 C   0  0  0  0  0  0  0  0  0  0  0  0
   -8.3385   -5.7326  -24.2754 C   0  0  0  0  0  0  0  0  0  0  0  0
   -9.5330   -5.0489  -24.4327 C   0  0  0  0  0  0  0  0  0  0  0  0
  -10.9120   -6.0454  -24.8169 Cl  0  0  0  0  0  0  0  0  0  0  0  0
   -9.5942   -3.6571  -24.3462 C   0  0  0  0  0  0  0  0  0  0  0  0
  -10.5484   -3.1413  -24.4023 H   0  0  0  0  0  0  0  0  0  0  0  0
   -8.3471   -6.8170  -24.2800 H   0  0  0  0  0  0  0  0  0  0  0  0
   -6.2320   -5.5319  -24.0319 H   0  0  0  0  0  0  0  0  0  0  0  0
   -6.2638   -3.0818  -24.0355 H   0  0  0  0  0  0  0  0  0  0  0  0
   -7.3276   -1.0432  -24.2122 H   0  0  0  0  0  0  0  0  0  0  0  0
   -8.8373   -1.0108  -25.1162 H   0  0  0  0  0  0  0  0  0  0  0  0
   -8.3954   -0.3253  -21.7479 C   0  0  0  0  0  0  0  0  0  0  0  0
   -8.5781    0.7222  -21.1948 O   0  0  0  0  0  0  0  0  0  0  0  0
   -7.4536   -1.4112  -21.2273 C   0  0  0  0  0  0  0  0  0  0  0  0
   -6.5619   -0.8658  -20.1466 C   0  0  0  0  0  0  0  0  0  0  0  0
   -6.8721   -1.0580  -18.8267 C   0  0  0  0  0  0  0  0  0  0  0  0
   -6.1926   -0.5381  -17.7674 N   0  0  0  0  0  0  0  0  0  0  0  0
   -5.1608    0.2194  -18.0542 C   0  0  0  0  0  0  0  0  0  0  0  0
   -4.7280    0.5165  -19.3745 C   0  0  0  0  0  0  0  0  0  0  0  0
   -3.6150    1.3596  -19.6204 C   0  0  0  0  0  0  0  0  0  0  0  0
   -3.2313    1.6519  -20.8989 C   0  0  0  0  0  0  0  0  0  0  0  0
   -3.9489    1.1154  -21.9914 C   0  0  0  0  0  0  0  0  0  0  0  0
   -5.0320    0.2964  -21.7814 C   0  0  0  0  0  0  0  0  0  0  0  0
   -5.4489   -0.0317  -20.4601 C   0  0  0  0  0  0  0  0  0  0  0  0
   -5.5899   -0.0839  -22.6350 H   0  0  0  0  0  0  0  0  0  0  0  0
   -3.6441    1.3667  -23.0020 H   0  0  0  0  0  0  0  0  0  0  0  0
   -2.3826    2.3027  -21.0822 H   0  0  0  0  0  0  0  0  0  0  0  0
   -3.0945    1.7845  -18.7668 H   0  0  0  0  0  0  0  0  0  0  0  0
   -4.6152    0.6585  -17.2183 H   0  0  0  0  0  0  0  0  0  0  0  0
   -7.7286   -1.6771  -18.5607 H   0  0  0  0  0  0  0  0  0  0  0  0
   -8.0676   -2.2354  -20.8347 H   0  0  0  0  0  0  0  0  0  0  0  0
   -6.8771   -1.8085  -22.0661 H   0  0  0  0  0  0  0  0  0  0  0  0
   -9.8150   -1.4363  -22.7179 H   0  0  0  0  0  0  0  0  0  0  0  0
  -11.8280   -0.6295  -22.9166 H   0  0  0  0  0  0  0  0  0  0  0  0
  -13.3695    1.1454  -23.6958 H   0  0  0  0  0  0  0  0  0  0  0  0
  -12.4742    3.2465  -24.6162 H   0  0  0  0  0  0  0  0  0  0  0  0
   -7.8262    1.2043  -25.2883 H   0  0  0  0  0  0  0  0  0  0  0  0
   -7.4291    1.2922  -23.5788 H   0  0  0  0  0  0  0  0  0  0  0  0
   -6.5762    3.2528  -24.9228 H   0  0  0  0  0  0  0  0  0  0  0  0
   -7.6399    3.7212  -23.5927 H   0  0  0  0  0  0  0  0  0  0  0  0
   -8.6155    3.3419  -26.4788 H   0  0  0  0  0  0  0  0  0  0  0  0
   -8.2993    4.9027  -25.7066 H   0  0  0  0  0  0  0  0  0  0  0  0
  -11.4388    4.7359  -22.9493 H   0  0  0  0  0  0  0  0  0  0  0  0
  -12.3314    6.9566  -24.8914 H   0  0  0  0  0  0  0  0  0  0  0  0
  -13.0340    6.6409  -23.1829 H   0  0  0  0  0  0  0  0  0  0  0  0
  1  2  2  0
  2  3  1  0
  3  4  2  0
  3  5  1  0
  5  6  1  0
  6  7  1  0
  7  8  1  0
  8  9  1  0
  9 10  2  0
 10 11  1  0
 11 12  2  0
 12 13  1  0
 13 14  2  0
 14 15  1  0
 15 16  1  0
 16 17  1  0
 17 18  2  0
 18 19  1  0
 19 20  2  0
 20 21  1  0
 21 22  1  0
 21 23  2  0
 23 24  1  0
 20 25  1  0
 19 26  1  0
 18 27  1  0
 16 28  1  0
 16 29  1  0
 15 30  1  0
 30 31  2  0
 30 32  1  0
 32 33  1  0
 33 34  2  0
 34 35  1  0
 35 36  2  0
 36 37  1  0
 37 38  2  0
 38 39  1  0
 39 40  2  0
 40 41  1  0
 41 42  2  0
 41 43  1  0
 40 44  1  0
 39 45  1  0
 38 46  1  0
 36 47  1  0
 34 48  1  0
 32 49  1  0
 32 50  1  0
 15 51  1  1
 13 52  1  0
 12 53  1  0
 11 54  1  0
  8 55  1  0
  8 56  1  0
  7 57  1  0
  7 58  1  0
  6 59  1  0
  6 60  1  0
  2 61  1  0
  1 62  1  0
  1 63  1  0
 10  5  1  0
 23 17  1  0
 42 33  1  0
 14  9  1  0
 42 37  1  0
M  CHG  1  15   1
M  END
>  <cnnaffinities>  (67) 
[6.22928]

>  <score>  (67) 
6.22928

>  <index>  (67) 
69

>  <Smiles>  (67) 
C(=C(C(=O)N1C(C(C(c2c1c(c(c(c2[N@@+](C(c1c(c(c(c(Cl)c1[H])[H])[H])[H])([H])[H])(C(=O)C(c1c(nc(c2c(c(c(c(c12)[H])[H])[H])[H])[H])[H])([H])[H])[H])[H])[H])[H])([H])[H])([H])[H])([H])[H])[H])([H])[H]

>  <h>  (67) 
<NA>

>  <Training>  (67) 
True

>  <Success>  (67) 
True

>  <enamine_searched>  (67) 
False

>  <enamine_id>  (67) 
nan

$$$$

     RDKit          3D

 52 54  0  0  0  0  0  0  0  0999 V2000
   -6.3724   -6.8985  -26.9828 C   0  0  0  0  0  0  0  0  0  0  0  0
   -5.9405   -5.7185  -26.1087 C   0  0  0  0  0  0  0  0  0  0  0  0
   -4.7385   -5.0147  -26.7465 C   0  0  0  0  0  0  0  0  0  0  0  0
   -4.3645   -4.1975  -26.1214 H   0  0  0  0  0  0  0  0  0  0  0  0
   -3.9077   -5.7126  -26.9008 H   0  0  0  0  0  0  0  0  0  0  0  0
   -4.9941   -4.5985  -27.7273 H   0  0  0  0  0  0  0  0  0  0  0  0
   -7.0564   -4.6946  -25.8277 C   0  0  0  0  0  0  0  0  0  0  0  0
   -8.3066   -5.0856  -24.9873 C   0  0  0  0  0  0  0  0  0  0  0  0
   -9.2719   -5.9594  -25.8029 C   0  0  0  0  0  0  0  0  0  0  0  0
   -9.5077   -5.4988  -26.7697 H   0  0  0  0  0  0  0  0  0  0  0  0
   -8.8823   -6.9617  -26.0011 H   0  0  0  0  0  0  0  0  0  0  0  0
  -10.2195   -6.0961  -25.2692 H   0  0  0  0  0  0  0  0  0  0  0  0
   -9.0487   -3.7803  -24.5725 C   0  0  0  0  0  0  0  0  0  0  0  0
   -8.8683   -3.3499  -23.1072 C   0  0  0  0  0  0  0  0  0  0  0  0
   -7.5308   -3.6141  -22.6019 N   0  0  0  0  0  0  0  0  0  0  0  0
   -6.7714   -2.7614  -21.8400 C   0  0  0  0  0  0  0  0  0  0  0  0
   -5.6004   -3.0095  -21.5986 O   0  0  0  0  0  0  0  0  0  0  0  0
   -7.4205   -1.4774  -21.2626 C   0  0  0  0  0  0  0  0  0  0  0  0
   -6.5805   -0.8302  -20.1825 C   0  0  0  0  0  0  0  0  0  0  0  0
   -6.8732   -1.0439  -18.8594 C   0  0  0  0  0  0  0  0  0  0  0  0
   -6.1912   -0.5398  -17.7963 N   0  0  0  0  0  0  0  0  0  0  0  0
   -5.1579    0.2236  -18.0638 C   0  0  0  0  0  0  0  0  0  0  0  0
   -4.7207    0.5303  -19.3821 C   0  0  0  0  0  0  0  0  0  0  0  0
   -3.5909    1.3572  -19.6209 C   0  0  0  0  0  0  0  0  0  0  0  0
   -3.1890    1.6329  -20.9010 C   0  0  0  0  0  0  0  0  0  0  0  0
   -3.8999    1.0885  -21.9931 C   0  0  0  0  0  0  0  0  0  0  0  0
   -4.9980    0.2875  -21.7870 C   0  0  0  0  0  0  0  0  0  0  0  0
   -5.4439   -0.0122  -20.4729 C   0  0  0  0  0  0  0  0  0  0  0  0
   -5.5231   -0.1343  -22.6369 H   0  0  0  0  0  0  0  0  0  0  0  0
   -3.5735    1.3110  -23.0043 H   0  0  0  0  0  0  0  0  0  0  0  0
   -2.3277    2.2700  -21.0854 H   0  0  0  0  0  0  0  0  0  0  0  0
   -3.0554    1.7755  -18.7709 H   0  0  0  0  0  0  0  0  0  0  0  0
   -4.6006    0.6289  -17.2170 H   0  0  0  0  0  0  0  0  0  0  0  0
   -7.7203   -1.6698  -18.5863 H   0  0  0  0  0  0  0  0  0  0  0  0
   -8.4071   -1.7224  -20.8426 H   0  0  0  0  0  0  0  0  0  0  0  0
   -7.6029   -0.7580  -22.0734 H   0  0  0  0  0  0  0  0  0  0  0  0
   -7.0265   -4.9787  -22.7853 C   0  0  0  0  0  0  0  0  0  0  0  0
   -7.9140   -5.8187  -23.7015 C   0  0  0  0  0  0  0  0  0  0  0  0
   -7.4028   -6.7572  -23.9440 H   0  0  0  0  0  0  0  0  0  0  0  0
   -8.8167   -6.1378  -23.1657 H   0  0  0  0  0  0  0  0  0  0  0  0
   -6.9477   -5.4746  -21.8174 H   0  0  0  0  0  0  0  0  0  0  0  0
   -6.0035   -4.9410  -23.1709 H   0  0  0  0  0  0  0  0  0  0  0  0
   -9.0768   -2.2829  -23.0306 H   0  0  0  0  0  0  0  0  0  0  0  0
   -9.6212   -3.8566  -22.4872 H   0  0  0  0  0  0  0  0  0  0  0  0
  -10.1254   -3.8888  -24.7267 H   0  0  0  0  0  0  0  0  0  0  0  0
   -8.7543   -2.9609  -25.2353 H   0  0  0  0  0  0  0  0  0  0  0  0
   -7.4103   -4.3115  -26.7958 H   0  0  0  0  0  0  0  0  0  0  0  0
   -6.5916   -3.8247  -25.3444 H   0  0  0  0  0  0  0  0  0  0  0  0
   -5.5896   -6.1225  -25.1544 H   0  0  0  0  0  0  0  0  0  0  0  0
   -5.5099   -7.3786  -27.4575 H   0  0  0  0  0  0  0  0  0  0  0  0
   -7.0394   -6.5749  -27.7878 H   0  0  0  0  0  0  0  0  0  0  0  0
   -6.8936   -7.6730  -26.4146 H   0  0  0  0  0  0  0  0  0  0  0  0
  1  2  1  0
  2  3  1  0
  3  4  1  0
  3  5  1  0
  3  6  1  0
  2  7  1  0
  7  8  1  0
  8  9  1  0
  9 10  1  0
  9 11  1  0
  9 12  1  0
  8 13  1  0
 13 14  1  0
 14 15  1  0
 15 16  1  0
 16 17  2  0
 16 18  1  0
 18 19  1  0
 19 20  2  0
 20 21  1  0
 21 22  2  0
 22 23  1  0
 23 24  2  0
 24 25  1  0
 25 26  2  0
 26 27  1  0
 27 28  2  0
 27 29  1  0
 26 30  1  0
 25 31  1  0
 24 32  1  0
 22 33  1  0
 20 34  1  0
 18 35  1  0
 18 36  1  0
 15 37  1  0
 37 38  1  0
 38 39  1  0
 38 40  1  0
 37 41  1  0
 37 42  1  0
 14 43  1  0
 14 44  1  0
 13 45  1  0
 13 46  1  0
  7 47  1  0
  7 48  1  0
  2 49  1  0
  1 50  1  0
  1 51  1  0
  1 52  1  0
 38  8  1  0
 28 19  1  0
 28 23  1  0
M  END
>  <cnnaffinities>  (68) 
[5.32455, 5.33109, 5.16376, 5.16373, 4.86063, 5.19113, 5.17935, 4.90211, 4.90093, 4.77748, 4.7781]

>  <score>  (68) 
5.32455

>  <index>  (68) 
70

>  <Smiles>  (68) 
C(C(C([H])([H])[H])(C(C1(C([H])([H])[H])C(C(N(C(=O)C(c2c(nc(c3c(c(c(c(c23)[H])[H])[H])[H])[H])[H])([H])[H])C(C1([H])[H])([H])[H])([H])[H])([H])[H])([H])[H])[H])([H])([H])[H]

>  <h>  (68) 
<NA>

>  <Training>  (68) 
True

>  <Success>  (68) 
True

>  <enamine_searched>  (68) 
False

>  <enamine_id>  (68) 
nan

$$$$

     RDKit          3D

 50 54  0  0  0  0  0  0  0  0999 V2000
   -9.7708   -0.7393  -23.6121 C   0  0  0  0  0  0  0  0  0  0  0  0
   -8.4758   -1.1535  -22.9148 C   0  0  1  0  0  0  0  0  0  0  0  0
   -8.0494   -0.2416  -21.7544 C   0  0  0  0  0  0  0  0  0  0  0  0
   -7.1281   -1.0847  -20.9943 N   0  0  0  0  0  0  0  0  0  0  0  0
   -6.3067   -0.6097  -19.9445 C   0  0  0  0  0  0  0  0  0  0  0  0
   -6.5853   -0.8683  -18.6244 C   0  0  0  0  0  0  0  0  0  0  0  0
   -5.9265   -0.2965  -17.5820 N   0  0  0  0  0  0  0  0  0  0  0  0
   -4.9379    0.5207  -17.8585 C   0  0  0  0  0  0  0  0  0  0  0  0
   -4.4934    0.8078  -19.1802 C   0  0  0  0  0  0  0  0  0  0  0  0
   -3.3707    1.6399  -19.4348 C   0  0  0  0  0  0  0  0  0  0  0  0
   -2.9587    1.8690  -20.7206 C   0  0  0  0  0  0  0  0  0  0  0  0
   -3.6526    1.2853  -21.8062 C   0  0  0  0  0  0  0  0  0  0  0  0
   -4.7492    0.4919  -21.5813 C   0  0  0  0  0  0  0  0  0  0  0  0
   -5.1960    0.2328  -20.2588 C   0  0  0  0  0  0  0  0  0  0  0  0
   -5.2798    0.0413  -22.4115 H   0  0  0  0  0  0  0  0  0  0  0  0
   -3.3204    1.4749  -22.8238 H   0  0  0  0  0  0  0  0  0  0  0  0
   -2.0987    2.5045  -20.9156 H   0  0  0  0  0  0  0  0  0  0  0  0
   -2.8618    2.0988  -18.5897 H   0  0  0  0  0  0  0  0  0  0  0  0
   -4.4204    0.9818  -17.0144 H   0  0  0  0  0  0  0  0  0  0  0  0
   -7.3882   -1.5488  -18.3517 H   0  0  0  0  0  0  0  0  0  0  0  0
   -7.2823   -2.4275  -21.2580 C   0  0  0  0  0  0  0  0  0  0  0  0
   -6.6312   -3.3224  -20.7493 O   0  0  0  0  0  0  0  0  0  0  0  0
   -8.4280   -2.5860  -22.2677 C   0  0  1  0  0  0  0  0  0  0  0  0
   -9.6683   -2.9395  -21.4091 C   0  0  0  0  0  0  0  0  0  0  0  0
  -10.7634   -3.4280  -22.2248 N   0  0  0  0  0  0  0  0  0  0  0  0
  -12.1558   -3.1989  -21.8842 C   0  0  0  0  0  0  0  0  0  0  0  0
  -12.8501   -2.4364  -22.9412 C   0  0  0  0  0  0  0  0  0  0  0  0
  -13.3691   -1.8479  -23.7901 N   0  0  0  0  0  0  0  0  0  0  0  0
  -12.2360   -2.6616  -20.9397 H   0  0  0  0  0  0  0  0  0  0  0  0
  -12.6548   -4.1683  -21.8093 H   0  0  0  0  0  0  0  0  0  0  0  0
  -10.5535   -4.4493  -23.1081 C   0  0  0  0  0  0  0  0  0  0  0  0
  -11.4577   -5.1856  -23.4521 O   0  0  0  0  0  0  0  0  0  0  0  0
   -9.1850   -4.5769  -23.6526 C   0  0  0  0  0  0  0  0  0  0  0  0
   -8.9691   -5.5929  -24.5771 C   0  0  0  0  0  0  0  0  0  0  0  0
   -7.7259   -5.7554  -25.1448 C   0  0  0  0  0  0  0  0  0  0  0  0
   -6.7164   -4.8860  -24.7495 C   0  0  0  0  0  0  0  0  0  0  0  0
   -5.4986   -5.0418  -25.2898 F   0  0  0  0  0  0  0  0  0  0  0  0
   -6.9052   -3.8897  -23.8116 C   0  0  0  0  0  0  0  0  0  0  0  0
   -8.1738   -3.7011  -23.2567 C   0  0  0  0  0  0  0  0  0  0  0  0
   -6.0608   -3.3008  -23.4764 H   0  0  0  0  0  0  0  0  0  0  0  0
   -7.5297   -6.5370  -25.8651 H   0  0  0  0  0  0  0  0  0  0  0  0
   -9.8093   -6.2353  -24.8180 H   0  0  0  0  0  0  0  0  0  0  0  0
   -9.3586   -3.6930  -20.6643 H   0  0  0  0  0  0  0  0  0  0  0  0
   -9.9994   -2.0521  -20.8607 H   0  0  0  0  0  0  0  0  0  0  0  0
   -8.9224    0.0495  -21.1471 H   0  0  0  0  0  0  0  0  0  0  0  0
   -7.5613    0.6830  -22.0724 H   0  0  0  0  0  0  0  0  0  0  0  0
   -7.6728   -1.1550  -23.6686 H   0  0  0  0  0  0  0  0  0  0  0  0
   -9.6549    0.2273  -24.1145 H   0  0  0  0  0  0  0  0  0  0  0  0
  -10.6056   -0.6525  -22.9067 H   0  0  0  0  0  0  0  0  0  0  0  0
  -10.0422   -1.4711  -24.3796 H   0  0  0  0  0  0  0  0  0  0  0  0
  1  2  1  0
  2  3  1  0
  3  4  1  0
  4  5  1  0
  5  6  2  0
  6  7  1  0
  7  8  2  0
  8  9  1  0
  9 10  2  0
 10 11  1  0
 11 12  2  0
 12 13  1  0
 13 14  2  0
 13 15  1  0
 12 16  1  0
 11 17  1  0
 10 18  1  0
  8 19  1  0
  6 20  1  0
  4 21  1  0
 21 22  2  0
 21 23  1  0
 23 24  1  1
 24 25  1  0
 25 26  1  0
 26 27  1  0
 27 28  3  0
 26 29  1  0
 26 30  1  0
 25 31  1  0
 31 32  2  0
 31 33  1  0
 33 34  2  0
 34 35  1  0
 35 36  2  0
 36 37  1  0
 36 38  1  0
 38 39  2  0
 38 40  1  0
 35 41  1  0
 34 42  1  0
 24 43  1  0
 24 44  1  0
  3 45  1  0
  3 46  1  0
  2 47  1  6
  1 48  1  0
  1 49  1  0
  1 50  1  0
 23  2  1  0
 39 33  1  0
 14  5  1  0
 39 23  1  0
 14  9  1  0
M  END
>  <cnnaffinities>  (69) 
[6.30127]

>  <score>  (69) 
6.30127

>  <index>  (69) 
71

>  <Smiles>  (69) 
C([C@]1(C(N(c2c(nc(c3c(c(c(c(c23)[H])[H])[H])[H])[H])[H])C(=O)[C@]21C(N(C(C#N)([H])[H])C(=O)c1c(c(c(F)c(c21)[H])[H])[H])([H])[H])([H])[H])[H])([H])([H])[H]

>  <h>  (69) 
<NA>

>  <Training>  (69) 
True

>  <Success>  (69) 
True

>  <enamine_searched>  (69) 
False

>  <enamine_id>  (69) 
nan

$$$$

     RDKit          3D

 41 44  0  0  0  0  0  0  0  0999 V2000
   -8.7460    0.7405  -21.4069 O   0  0  0  0  0  0  0  0  0  0  0  0
   -8.4838   -0.3108  -21.9660 C   0  0  0  0  0  0  0  0  0  0  0  0
   -7.5667   -1.3601  -21.3158 C   0  0  0  0  0  0  0  0  0  0  0  0
   -6.7258   -0.8019  -20.2155 C   0  0  0  0  0  0  0  0  0  0  0  0
   -7.0591   -1.0266  -18.9032 C   0  0  0  0  0  0  0  0  0  0  0  0
   -6.3758   -0.5508  -17.8307 N   0  0  0  0  0  0  0  0  0  0  0  0
   -5.3207    0.1832  -18.0836 C   0  0  0  0  0  0  0  0  0  0  0  0
   -4.8560    0.4994  -19.3944 C   0  0  0  0  0  0  0  0  0  0  0  0
   -3.7055    1.3010  -19.6126 C   0  0  0  0  0  0  0  0  0  0  0  0
   -3.2870    1.5845  -20.8854 C   0  0  0  0  0  0  0  0  0  0  0  0
   -3.9997    1.0805  -21.9992 C   0  0  0  0  0  0  0  0  0  0  0  0
   -5.1204    0.3050  -21.8144 C   0  0  0  0  0  0  0  0  0  0  0  0
   -5.5777   -0.0036  -20.4994 C   0  0  0  0  0  0  0  0  0  0  0  0
   -5.6632   -0.0723  -22.6785 H   0  0  0  0  0  0  0  0  0  0  0  0
   -3.6614    1.3184  -23.0054 H   0  0  0  0  0  0  0  0  0  0  0  0
   -2.4127    2.2097  -21.0485 H   0  0  0  0  0  0  0  0  0  0  0  0
   -3.1788    1.6962  -18.7466 H   0  0  0  0  0  0  0  0  0  0  0  0
   -4.7728    0.5721  -17.2245 H   0  0  0  0  0  0  0  0  0  0  0  0
   -7.9293   -1.6335  -18.6544 H   0  0  0  0  0  0  0  0  0  0  0  0
   -6.9246   -1.8116  -22.0813 H   0  0  0  0  0  0  0  0  0  0  0  0
   -8.1846   -2.1799  -20.9263 H   0  0  0  0  0  0  0  0  0  0  0  0
   -8.9437   -0.6287  -23.2312 N   0  0  0  0  0  0  0  0  0  0  0  0
   -9.6225    0.4239  -23.9821 C   0  0  0  0  0  0  0  0  0  0  0  0
  -11.0813    0.6849  -23.6029 C   0  0  0  0  0  0  0  0  0  0  0  0
  -12.0174   -0.5155  -23.7858 C   0  0  0  0  0  0  0  0  0  0  0  0
  -11.6914   -1.7302  -22.9494 C   0  0  0  0  0  0  0  0  0  0  0  0
  -12.9260   -2.4473  -21.9919 S   0  0  0  0  0  0  0  0  0  0  0  0
  -11.9099   -3.7337  -21.5118 C   0  0  0  0  0  0  0  0  0  0  0  0
  -10.6727   -3.6233  -22.0649 C   0  0  0  0  0  0  0  0  0  0  0  0
  -10.5400   -2.4594  -22.8770 C   0  0  0  0  0  0  0  0  0  0  0  0
   -9.2679   -2.0152  -23.5395 C   0  0  0  0  0  0  0  0  0  0  0  0
   -8.4469   -2.6495  -23.1974 H   0  0  0  0  0  0  0  0  0  0  0  0
   -9.3340   -2.1222  -24.6283 H   0  0  0  0  0  0  0  0  0  0  0  0
   -9.8932   -4.3668  -21.9444 H   0  0  0  0  0  0  0  0  0  0  0  0
  -12.2676   -4.4529  -20.7980 H   0  0  0  0  0  0  0  0  0  0  0  0
  -13.0279   -0.1786  -23.5426 H   0  0  0  0  0  0  0  0  0  0  0  0
  -12.0521   -0.8137  -24.8482 H   0  0  0  0  0  0  0  0  0  0  0  0
  -11.4552    1.5028  -24.2376 H   0  0  0  0  0  0  0  0  0  0  0  0
  -11.1248    1.0481  -22.5674 H   0  0  0  0  0  0  0  0  0  0  0  0
   -9.5584    0.1785  -25.0524 H   0  0  0  0  0  0  0  0  0  0  0  0
   -9.0460    1.3378  -23.8271 H   0  0  0  0  0  0  0  0  0  0  0  0
  1  2  2  0
  2  3  1  0
  3  4  1  0
  4  5  2  0
  5  6  1  0
  6  7  2  0
  7  8  1  0
  8  9  2  0
  9 10  1  0
 10 11  2  0
 11 12  1  0
 12 13  2  0
 12 14  1  0
 11 15  1  0
 10 16  1  0
  9 17  1  0
  7 18  1  0
  5 19  1  0
  3 20  1  0
  3 21  1  0
  2 22  1  0
 22 23  1  0
 23 24  1  0
 24 25  1  0
 25 26  1  0
 26 27  1  0
 27 28  1  0
 28 29  2  0
 29 30  1  0
 30 31  1  0
 31 32  1  0
 31 33  1  0
 29 34  1  0
 28 35  1  0
 25 36  1  0
 25 37  1  0
 24 38  1  0
 24 39  1  0
 23 40  1  0
 23 41  1  0
 13  4  1  0
 31 22  1  0
 13  8  1  0
 30 26  2  0
M  END
>  <cnnaffinities>  (70) 
[5.57453, 4.88909, 5.01514, 4.91685, 5.21439]

>  <score>  (70) 
5.57453

>  <index>  (70) 
72

>  <Smiles>  (70) 
O=C(C(c1c(nc(c2c(c(c(c(c12)[H])[H])[H])[H])[H])[H])([H])[H])N1C(C(C(c2sc(c(c2C1([H])[H])[H])[H])([H])[H])([H])[H])([H])[H]

>  <h>  (70) 
<NA>

>  <Training>  (70) 
True

>  <Success>  (70) 
True

>  <enamine_searched>  (70) 
False

>  <enamine_id>  (70) 
nan

$$$$

     RDKit          3D

 50 53  0  0  0  0  0  0  0  0999 V2000
   -5.5983   -3.0228  -21.5801 O   0  0  0  0  0  0  0  0  0  0  0  0
   -6.7572   -2.7529  -21.8601 C   0  0  0  0  0  0  0  0  0  0  0  0
   -7.4151   -1.4794  -21.2681 C   0  0  0  0  0  0  0  0  0  0  0  0
   -6.5808   -0.8312  -20.1835 C   0  0  0  0  0  0  0  0  0  0  0  0
   -6.8737   -1.0443  -18.8630 C   0  0  0  0  0  0  0  0  0  0  0  0
   -6.1916   -0.5396  -17.7982 N   0  0  0  0  0  0  0  0  0  0  0  0
   -5.1599    0.2229  -18.0658 C   0  0  0  0  0  0  0  0  0  0  0  0
   -4.7211    0.5286  -19.3815 C   0  0  0  0  0  0  0  0  0  0  0  0
   -3.5919    1.3544  -19.6229 C   0  0  0  0  0  0  0  0  0  0  0  0
   -3.1889    1.6315  -20.9000 C   0  0  0  0  0  0  0  0  0  0  0  0
   -3.9014    1.0870  -21.9936 C   0  0  0  0  0  0  0  0  0  0  0  0
   -4.9984    0.2873  -21.7868 C   0  0  0  0  0  0  0  0  0  0  0  0
   -5.4452   -0.0141  -20.4753 C   0  0  0  0  0  0  0  0  0  0  0  0
   -5.5279   -0.1323  -22.6365 H   0  0  0  0  0  0  0  0  0  0  0  0
   -3.5760    1.3116  -23.0045 H   0  0  0  0  0  0  0  0  0  0  0  0
   -2.3280    2.2702  -21.0853 H   0  0  0  0  0  0  0  0  0  0  0  0
   -3.0588    1.7740  -18.7704 H   0  0  0  0  0  0  0  0  0  0  0  0
   -4.6033    0.6280  -17.2165 H   0  0  0  0  0  0  0  0  0  0  0  0
   -7.7195   -1.6690  -18.5846 H   0  0  0  0  0  0  0  0  0  0  0  0
   -7.6153   -0.7497  -22.0653 H   0  0  0  0  0  0  0  0  0  0  0  0
   -8.3962   -1.7470  -20.8487 H   0  0  0  0  0  0  0  0  0  0  0  0
   -7.5169   -3.5807  -22.6632 N   0  0  0  0  0  0  0  0  0  0  0  0
   -8.6613   -3.1244  -23.4500 C   0  0  0  0  0  0  0  0  0  0  0  0
   -9.7296   -4.1999  -23.5614 C   0  0  0  0  0  0  0  0  0  0  0  0
   -9.1561   -5.4960  -24.1069 C   0  0  0  0  0  0  0  0  0  0  0  0
   -7.9836   -5.9348  -23.2426 C   0  0  0  0  0  0  0  0  0  0  0  0
   -6.9110   -4.8519  -23.1003 C   0  0  1  0  0  0  0  0  0  0  0  0
   -6.0428   -4.6967  -24.3695 C   0  0  0  0  0  0  0  0  0  0  0  0
   -5.2082   -5.9195  -24.6890 C   0  0  0  0  0  0  0  0  0  0  0  0
   -4.0477   -6.1887  -23.9586 C   0  0  0  0  0  0  0  0  0  0  0  0
   -3.2850   -7.3198  -24.2207 C   0  0  0  0  0  0  0  0  0  0  0  0
   -3.6706   -8.2109  -25.2181 C   0  0  0  0  0  0  0  0  0  0  0  0
   -4.8273   -7.9600  -25.9506 C   0  0  0  0  0  0  0  0  0  0  0  0
   -5.5854   -6.8241  -25.6840 C   0  0  0  0  0  0  0  0  0  0  0  0
   -6.4949   -6.6405  -26.2527 H   0  0  0  0  0  0  0  0  0  0  0  0
   -5.1406   -8.6464  -26.7320 H   0  0  0  0  0  0  0  0  0  0  0  0
   -3.0714   -9.0917  -25.4249 H   0  0  0  0  0  0  0  0  0  0  0  0
   -2.3833   -7.5071  -23.6434 H   0  0  0  0  0  0  0  0  0  0  0  0
   -3.7418   -5.5013  -23.1730 H   0  0  0  0  0  0  0  0  0  0  0  0
   -6.6856   -4.4574  -25.2236 H   0  0  0  0  0  0  0  0  0  0  0  0
   -5.3821   -3.8383  -24.2142 H   0  0  0  0  0  0  0  0  0  0  0  0
   -6.2390   -5.1528  -22.2973 H   0  0  0  0  0  0  0  0  0  0  0  0
   -8.3522   -6.1923  -22.2461 H   0  0  0  0  0  0  0  0  0  0  0  0
   -7.5391   -6.8533  -23.6373 H   0  0  0  0  0  0  0  0  0  0  0  0
   -9.9239   -6.2710  -24.1399 H   0  0  0  0  0  0  0  0  0  0  0  0
   -8.8349   -5.3712  -25.1475 H   0  0  0  0  0  0  0  0  0  0  0  0
  -10.1644   -4.3781  -22.5751 H   0  0  0  0  0  0  0  0  0  0  0  0
  -10.5458   -3.8433  -24.1922 H   0  0  0  0  0  0  0  0  0  0  0  0
   -9.0846   -2.2322  -22.9913 H   0  0  0  0  0  0  0  0  0  0  0  0
   -8.3557   -2.8303  -24.4653 H   0  0  0  0  0  0  0  0  0  0  0  0
  1  2  2  0
  2  3  1  0
  3  4  1  0
  4  5  2  0
  5  6  1  0
  6  7  2  0
  7  8  1  0
  8  9  2  0
  9 10  1  0
 10 11  2  0
 11 12  1  0
 12 13  2  0
 12 14  1  0
 11 15  1  0
 10 16  1  0
  9 17  1  0
  7 18  1  0
  5 19  1  0
  3 20  1  0
  3 21  1  0
  2 22  1  0
 22 23  1  0
 23 24  1  0
 24 25  1  0
 25 26  1  0
 26 27  1  0
 27 28  1  0
 28 29  1  0
 29 30  2  0
 30 31  1  0
 31 32  2  0
 32 33  1  0
 33 34  2  0
 34 35  1  0
 33 36  1  0
 32 37  1  0
 31 38  1  0
 30 39  1  0
 28 40  1  0
 28 41  1  0
 27 42  1  1
 26 43  1  0
 26 44  1  0
 25 45  1  0
 25 46  1  0
 24 47  1  0
 24 48  1  0
 23 49  1  0
 23 50  1  0
 13  4  1  0
 27 22  1  0
 34 29  1  0
 13  8  1  0
M  END
>  <cnnaffinities>  (71) 
[5.54152, 4.86482]

>  <score>  (71) 
5.54152

>  <index>  (71) 
73

>  <Smiles>  (71) 
O=C(C(c1c(nc(c2c(c(c(c(c12)[H])[H])[H])[H])[H])[H])([H])[H])N1C(C(C(C([C@]1(C(c1c(c(c(c(c1[H])[H])[H])[H])[H])([H])[H])[H])([H])[H])([H])[H])([H])[H])([H])[H]

>  <h>  (71) 
<NA>

>  <Training>  (71) 
True

>  <Success>  (71) 
True

>  <enamine_searched>  (71) 
False

>  <enamine_id>  (71) 
nan

$$$$

     RDKit          3D

 43 47  0  0  0  0  0  0  0  0999 V2000
   -9.4246   -0.4519  -20.9847 O   0  0  0  0  0  0  0  0  0  0  0  0
   -8.7454   -1.3648  -21.3794 C   0  0  0  0  0  0  0  0  0  0  0  0
   -9.1366   -2.4470  -22.1202 N   0  0  0  0  0  0  0  0  0  0  0  0
   -8.0404   -3.1471  -22.7414 C   0  0  1  0  0  0  0  0  0  0  0  0
   -8.1061   -4.6901  -22.7166 C   0  0  0  0  0  0  0  0  0  0  0  0
   -8.2241   -4.7228  -24.2749 C   0  0  2  0  0  0  0  0  0  0  0  0
   -7.1764   -5.5219  -24.9872 C   0  0  0  0  0  0  0  0  0  0  0  0
   -5.8201   -5.2772  -24.7416 C   0  0  0  0  0  0  0  0  0  0  0  0
   -4.8304   -6.0100  -25.3856 C   0  0  0  0  0  0  0  0  0  0  0  0
   -5.1804   -7.0116  -26.2899 C   0  0  0  0  0  0  0  0  0  0  0  0
   -6.5201   -7.2764  -26.5441 C   0  0  0  0  0  0  0  0  0  0  0  0
   -7.4981   -6.5334  -25.8932 C   0  0  0  0  0  0  0  0  0  0  0  0
   -9.1680   -6.9152  -26.2478 Cl  0  0  0  0  0  0  0  0  0  0  0  0
   -6.8256   -8.0527  -27.2400 H   0  0  0  0  0  0  0  0  0  0  0  0
   -4.4105   -7.5881  -26.7955 H   0  0  0  0  0  0  0  0  0  0  0  0
   -3.7857   -5.7991  -25.1756 H   0  0  0  0  0  0  0  0  0  0  0  0
   -5.5480   -4.4990  -24.0256 H   0  0  0  0  0  0  0  0  0  0  0  0
   -8.0351   -3.1712  -24.2986 C   0  0  0  0  0  0  0  0  0  0  0  0
   -8.8575   -2.6049  -24.7503 H   0  0  0  0  0  0  0  0  0  0  0  0
   -7.0983   -2.8277  -24.7557 H   0  0  0  0  0  0  0  0  0  0  0  0
   -9.2258   -5.0185  -24.6002 H   0  0  0  0  0  0  0  0  0  0  0  0
   -8.9700   -5.0704  -22.1634 H   0  0  0  0  0  0  0  0  0  0  0  0
   -7.1949   -5.1502  -22.3160 H   0  0  0  0  0  0  0  0  0  0  0  0
   -6.8408   -2.5159  -22.0535 C   0  0  0  0  0  0  0  0  0  0  0  0
   -5.6783   -2.8004  -22.2337 O   0  0  0  0  0  0  0  0  0  0  0  0
   -7.3409   -1.5186  -21.2048 N   0  0  0  0  0  0  0  0  0  0  0  0
   -6.5843   -0.8592  -20.1871 C   0  0  0  0  0  0  0  0  0  0  0  0
   -6.9100   -1.0584  -18.8674 C   0  0  0  0  0  0  0  0  0  0  0  0
   -6.2182   -0.5408  -17.8232 N   0  0  0  0  0  0  0  0  0  0  0  0
   -5.1793    0.2084  -18.0962 C   0  0  0  0  0  0  0  0  0  0  0  0
   -4.7453    0.5222  -19.4115 C   0  0  0  0  0  0  0  0  0  0  0  0
   -3.6154    1.3541  -19.6386 C   0  0  0  0  0  0  0  0  0  0  0  0
   -3.2256    1.6575  -20.9122 C   0  0  0  0  0  0  0  0  0  0  0  0
   -3.9560    1.1439  -22.0080 C   0  0  0  0  0  0  0  0  0  0  0  0
   -5.0499    0.3364  -21.8137 C   0  0  0  0  0  0  0  0  0  0  0  0
   -5.4692   -0.0129  -20.4996 C   0  0  0  0  0  0  0  0  0  0  0  0
   -5.6008   -0.0500  -22.6649 H   0  0  0  0  0  0  0  0  0  0  0  0
   -3.6476    1.3978  -23.0163 H   0  0  0  0  0  0  0  0  0  0  0  0
   -2.3690    2.3042  -21.0893 H   0  0  0  0  0  0  0  0  0  0  0  0
   -3.0860    1.7555  -18.7791 H   0  0  0  0  0  0  0  0  0  0  0  0
   -4.6275    0.6106  -17.2476 H   0  0  0  0  0  0  0  0  0  0  0  0
   -7.7565   -1.6845  -18.5976 H   0  0  0  0  0  0  0  0  0  0  0  0
  -10.1024   -2.6114  -22.3587 H   0  0  0  0  0  0  0  0  0  0  0  0
  1  2  2  0
  2  3  1  0
  4  3  1  6
  4  5  1  0
  5  6  1  0
  6  7  1  0
  7  8  2  0
  8  9  1  0
  9 10  2  0
 10 11  1  0
 11 12  2  0
 12 13  1  0
 11 14  1  0
 10 15  1  0
  9 16  1  0
  8 17  1  0
  6 18  1  0
 18 19  1  0
 18 20  1  0
  6 21  1  1
  5 22  1  0
  5 23  1  0
  4 24  1  0
 24 25  2  0
 24 26  1  0
 26 27  1  0
 27 28  2  0
 28 29  1  0
 29 30  2  0
 30 31  1  0
 31 32  2  0
 32 33  1  0
 33 34  2  0
 34 35  1  0
 35 36  2  0
 35 37  1  0
 34 38  1  0
 33 39  1  0
 32 40  1  0
 30 41  1  0
 28 42  1  0
  3 43  1  0
 26  2  1  0
 36 27  1  0
 18  4  1  0
 36 31  1  0
 12  7  1  0
M  END
>  <cnnaffinities>  (72) 
[5.71494]

>  <score>  (72) 
5.71494

>  <index>  (72) 
74

>  <Smiles>  (72) 
O=C1N([C@]2(C([C@](c3c(c(c(c(c3Cl)[H])[H])[H])[H])(C2([H])[H])[H])([H])[H])C(=O)N1c1c(nc(c2c(c(c(c(c12)[H])[H])[H])[H])[H])[H])[H]

>  <h>  (72) 
<NA>

>  <Training>  (72) 
True

>  <Success>  (72) 
True

>  <enamine_searched>  (72) 
False

>  <enamine_id>  (72) 
nan

$$$$

     RDKit          3D

 66 71  0  0  0  0  0  0  0  0999 V2000
   -7.3526    3.3949  -21.9320 C   0  0  0  0  0  0  0  0  0  0  0  0
   -8.3001    2.8905  -22.9146 N   0  0  0  0  0  0  0  0  0  0  0  0
   -7.8042    2.1630  -23.9527 C   0  0  0  0  0  0  0  0  0  0  0  0
   -6.6084    1.9692  -24.0909 O   0  0  0  0  0  0  0  0  0  0  0  0
   -8.8162    1.5670  -24.9321 C   0  0  0  0  0  0  0  0  0  0  0  0
   -9.4508    0.4075  -24.3384 N   0  0  0  0  0  0  0  0  0  0  0  0
   -8.6608   -0.8117  -24.1875 C   0  0  0  0  0  0  0  0  0  0  0  0
   -9.0129   -1.5559  -22.8767 C   0  0  2  0  0  0  0  0  0  0  0  0
   -8.5090   -0.7708  -21.6473 C   0  0  0  0  0  0  0  0  0  0  0  0
   -9.0062    0.2097  -21.1298 O   0  0  0  0  0  0  0  0  0  0  0  0
   -7.3686   -1.3894  -21.1947 N   0  0  0  0  0  0  0  0  0  0  0  0
   -6.5958   -0.8123  -20.1650 C   0  0  0  0  0  0  0  0  0  0  0  0
   -6.9362   -1.0265  -18.8531 C   0  0  0  0  0  0  0  0  0  0  0  0
   -6.2439   -0.5338  -17.7990 N   0  0  0  0  0  0  0  0  0  0  0  0
   -5.1930    0.2051  -18.0696 C   0  0  0  0  0  0  0  0  0  0  0  0
   -4.7467    0.5206  -19.3850 C   0  0  0  0  0  0  0  0  0  0  0  0
   -3.6208    1.3484  -19.6270 C   0  0  0  0  0  0  0  0  0  0  0  0
   -3.2386    1.6486  -20.9062 C   0  0  0  0  0  0  0  0  0  0  0  0
   -3.9714    1.1493  -22.0073 C   0  0  0  0  0  0  0  0  0  0  0  0
   -5.0691    0.3491  -21.8027 C   0  0  0  0  0  0  0  0  0  0  0  0
   -5.4726    0.0070  -20.4807 C   0  0  0  0  0  0  0  0  0  0  0  0
   -5.6482    0.0079  -22.6566 H   0  0  0  0  0  0  0  0  0  0  0  0
   -3.6761    1.4115  -23.0187 H   0  0  0  0  0  0  0  0  0  0  0  0
   -2.3748    2.2846  -21.0824 H   0  0  0  0  0  0  0  0  0  0  0  0
   -3.0865    1.7468  -18.7708 H   0  0  0  0  0  0  0  0  0  0  0  0
   -4.6364    0.6007  -17.2230 H   0  0  0  0  0  0  0  0  0  0  0  0
   -7.8104   -1.6344  -18.6243 H   0  0  0  0  0  0  0  0  0  0  0  0
   -6.9717   -2.5621  -21.9461 C   0  0  0  0  0  0  0  0  0  0  0  0
   -8.2505   -2.9037  -22.7198 C   0  0  2  0  0  0  0  0  0  0  0  0
   -8.0385   -3.7187  -24.0021 C   0  0  0  0  0  0  0  0  0  0  0  0
   -7.6210   -5.0860  -23.7593 N   0  0  0  0  0  0  0  0  0  0  0  0
   -6.3210   -5.4361  -23.4880 C   0  0  0  0  0  0  0  0  0  0  0  0
   -5.2222   -4.6695  -23.9422 C   0  0  0  0  0  0  0  0  0  0  0  0
   -3.9788   -5.0461  -23.7186 N   0  0  0  0  0  0  0  0  0  0  0  0
   -3.7781   -6.1621  -23.0140 C   0  0  0  0  0  0  0  0  0  0  0  0
   -4.8524   -6.9058  -22.5607 C   0  0  0  0  0  0  0  0  0  0  0  0
   -6.1186   -6.5643  -22.8068 N   0  0  0  0  0  0  0  0  0  0  0  0
   -4.6932   -7.8097  -21.9784 H   0  0  0  0  0  0  0  0  0  0  0  0
   -2.7471   -6.4521  -22.8123 H   0  0  0  0  0  0  0  0  0  0  0  0
   -5.3538   -3.7417  -24.5002 H   0  0  0  0  0  0  0  0  0  0  0  0
   -8.2902   -5.7042  -23.3163 H   0  0  0  0  0  0  0  0  0  0  0  0
   -7.2832   -3.2295  -24.6276 H   0  0  0  0  0  0  0  0  0  0  0  0
   -8.9717   -3.7405  -24.5810 H   0  0  0  0  0  0  0  0  0  0  0  0
   -8.8413   -3.5270  -22.0433 H   0  0  0  0  0  0  0  0  0  0  0  0
   -6.6593   -3.3664  -21.2730 H   0  0  0  0  0  0  0  0  0  0  0  0
   -6.1254   -2.3423  -22.6143 H   0  0  0  0  0  0  0  0  0  0  0  0
  -10.5134   -1.6675  -22.7819 C   0  0  0  0  0  0  0  0  0  0  0  0
  -11.0799   -2.5765  -21.8842 C   0  0  0  0  0  0  0  0  0  0  0  0
  -12.4449   -2.6237  -21.7009 C   0  0  0  0  0  0  0  0  0  0  0  0
  -13.0420   -3.7169  -20.4844 Cl  0  0  0  0  0  0  0  0  0  0  0  0
  -13.3026   -1.7914  -22.4210 C   0  0  0  0  0  0  0  0  0  0  0  0
  -12.7454   -0.8648  -23.2843 C   0  0  0  0  0  0  0  0  0  0  0  0
  -11.3624   -0.7622  -23.4294 C   0  0  0  0  0  0  0  0  0  0  0  0
  -10.8162    0.3944  -24.2174 C   0  0  0  0  0  0  0  0  0  0  0  0
  -11.5396    1.2625  -24.6887 O   0  0  0  0  0  0  0  0  0  0  0  0
  -13.3670   -0.1704  -23.8384 H   0  0  0  0  0  0  0  0  0  0  0  0
  -14.3750   -1.8538  -22.2705 H   0  0  0  0  0  0  0  0  0  0  0  0
  -10.4745   -3.2435  -21.2822 H   0  0  0  0  0  0  0  0  0  0  0  0
   -8.8560   -1.4776  -25.0400 H   0  0  0  0  0  0  0  0  0  0  0  0
   -7.5986   -0.5433  -24.1993 H   0  0  0  0  0  0  0  0  0  0  0  0
   -8.2891    1.2917  -25.8523 H   0  0  0  0  0  0  0  0  0  0  0  0
   -9.6083    2.2725  -25.1911 H   0  0  0  0  0  0  0  0  0  0  0  0
   -9.2336    2.6767  -22.5857 H   0  0  0  0  0  0  0  0  0  0  0  0
   -6.8073    2.5596  -21.4705 H   0  0  0  0  0  0  0  0  0  0  0  0
   -6.6293    4.0463  -22.4299 H   0  0  0  0  0  0  0  0  0  0  0  0
   -7.8793    3.9852  -21.1787 H   0  0  0  0  0  0  0  0  0  0  0  0
  1  2  1  0
  2  3  1  0
  3  4  2  0
  3  5  1  0
  5  6  1  0
  6  7  1  0
  8  7  1  6
  8  9  1  0
  9 10  2  0
  9 11  1  0
 11 12  1  0
 12 13  2  0
 13 14  1  0
 14 15  2  0
 15 16  1  0
 16 17  2  0
 17 18  1  0
 18 19  2  0
 19 20  1  0
 20 21  2  0
 20 22  1  0
 19 23  1  0
 18 24  1  0
 17 25  1  0
 15 26  1  0
 13 27  1  0
 11 28  1  0
 28 29  1  0
 29 30  1  0
 30 31  1  0
 31 32  1  0
 32 33  2  0
 33 34  1  0
 34 35  2  0
 35 36  1  0
 36 37  2  0
 36 38  1  0
 35 39  1  0
 33 40  1  0
 31 41  1  0
 30 42  1  0
 30 43  1  0
 29 44  1  1
 28 45  1  0
 28 46  1  0
  8 47  1  0
 47 48  2  0
 48 49  1  0
 49 50  1  0
 49 51  2  0
 51 52  1  0
 52 53  2  0
 53 54  1  0
 54 55  2  0
 52 56  1  0
 51 57  1  0
 48 58  1  0
  7 59  1  0
  7 60  1  0
  5 61  1  0
  5 62  1  0
  2 63  1  0
  1 64  1  0
  1 65  1  0
  1 66  1  0
 54  6  1  0
 29  8  1  0
 37 32  1  0
 53 47  1  0
 21 12  1  0
 21 16  1  0
M  END
>  <cnnaffinities>  (73) 
[6.60371]

>  <score>  (73) 
6.60371

>  <index>  (73) 
75

>  <Smiles>  (73) 
C(N(C(=O)C(N1C([C@@]2(C(=O)N(c3c(nc(c4c(c(c(c(c34)[H])[H])[H])[H])[H])[H])C([C@@]2(C(N(c2c(nc(c(n2)[H])[H])[H])[H])([H])[H])[H])([H])[H])c2c(c(Cl)c(c(c2C1=O)[H])[H])[H])([H])[H])([H])[H])[H])([H])([H])[H]

>  <h>  (73) 
<NA>

>  <Training>  (73) 
True

>  <Success>  (73) 
True

>  <enamine_searched>  (73) 
False

>  <enamine_id>  (73) 
nan

$$$$

     RDKit          3D

 66 71  0  0  0  0  0  0  0  0999 V2000
   -8.1147   -3.8160  -23.9119 C   0  0  0  0  0  0  0  0  0  0  0  0
   -8.3295   -3.0151  -22.6265 C   0  0  1  0  0  0  0  0  0  0  0  0
   -7.0184   -2.5970  -21.9341 C   0  0  0  0  0  0  0  0  0  0  0  0
   -7.3907   -1.4096  -21.1852 N   0  0  0  0  0  0  0  0  0  0  0  0
   -6.6016   -0.8167  -20.1670 C   0  0  0  0  0  0  0  0  0  0  0  0
   -6.9125   -1.0418  -18.8490 C   0  0  0  0  0  0  0  0  0  0  0  0
   -6.2099   -0.5431  -17.8027 N   0  0  0  0  0  0  0  0  0  0  0  0
   -5.1731    0.2108  -18.0791 C   0  0  0  0  0  0  0  0  0  0  0  0
   -4.7370    0.5287  -19.3982 C   0  0  0  0  0  0  0  0  0  0  0  0
   -3.6127    1.3609  -19.6391 C   0  0  0  0  0  0  0  0  0  0  0  0
   -3.2215    1.6508  -20.9167 C   0  0  0  0  0  0  0  0  0  0  0  0
   -3.9395    1.1222  -22.0134 C   0  0  0  0  0  0  0  0  0  0  0  0
   -5.0351    0.3144  -21.8074 C   0  0  0  0  0  0  0  0  0  0  0  0
   -5.4678   -0.0036  -20.4893 C   0  0  0  0  0  0  0  0  0  0  0  0
   -5.5798   -0.0759  -22.6636 H   0  0  0  0  0  0  0  0  0  0  0  0
   -3.6325    1.3694  -23.0262 H   0  0  0  0  0  0  0  0  0  0  0  0
   -2.3704    2.3018  -21.0974 H   0  0  0  0  0  0  0  0  0  0  0  0
   -3.0872    1.7744  -18.7809 H   0  0  0  0  0  0  0  0  0  0  0  0
   -4.6173    0.6155  -17.2329 H   0  0  0  0  0  0  0  0  0  0  0  0
   -7.7644   -1.6682  -18.5939 H   0  0  0  0  0  0  0  0  0  0  0  0
   -8.6135   -0.8886  -21.5384 C   0  0  0  0  0  0  0  0  0  0  0  0
   -9.1475    0.0506  -20.9806 O   0  0  0  0  0  0  0  0  0  0  0  0
   -9.1433   -1.6919  -22.7510 C   0  0  1  0  0  0  0  0  0  0  0  0
   -8.8393   -0.9474  -24.0711 C   0  0  0  0  0  0  0  0  0  0  0  0
   -9.5674    0.3017  -24.1656 N   0  0  0  0  0  0  0  0  0  0  0  0
   -8.8505    1.5135  -24.5005 C   0  0  0  0  0  0  0  0  0  0  0  0
   -8.2668    2.1734  -23.2490 C   0  0  0  0  0  0  0  0  0  0  0  0
   -7.5916    3.4815  -23.5140 N   0  0  0  0  0  4  0  0  0  0  0  0
   -6.3364    3.3637  -24.3572 C   0  0  0  0  0  0  0  0  0  0  0  0
   -5.6289    4.7087  -24.4588 C   0  0  0  0  0  0  0  0  0  0  0  0
   -5.3282    5.2542  -23.1922 O   0  0  0  0  0  0  0  0  0  0  0  0
   -6.5116    5.4708  -22.4532 C   0  0  0  0  0  0  0  0  0  0  0  0
   -7.2676    4.1740  -22.2131 C   0  0  0  0  0  0  0  0  0  0  0  0
   -8.2051    4.3666  -21.6830 H   0  0  0  0  0  0  0  0  0  0  0  0
   -6.6539    3.4920  -21.6126 H   0  0  0  0  0  0  0  0  0  0  0  0
   -7.1657    6.1804  -22.9860 H   0  0  0  0  0  0  0  0  0  0  0  0
   -6.2099    5.9161  -21.5013 H   0  0  0  0  0  0  0  0  0  0  0  0
   -4.6736    4.6026  -24.9802 H   0  0  0  0  0  0  0  0  0  0  0  0
   -6.2613    5.4118  -25.0265 H   0  0  0  0  0  0  0  0  0  0  0  0
   -5.6722    2.6263  -23.8948 H   0  0  0  0  0  0  0  0  0  0  0  0
   -6.6086    3.0166  -25.3553 H   0  0  0  0  0  0  0  0  0  0  0  0
   -8.2843    4.0772  -24.0194 H   0  0  0  0  0  0  0  0  0  0  0  0
   -9.0611    2.3419  -22.5130 H   0  0  0  0  0  0  0  0  0  0  0  0
   -7.5360    1.4968  -22.7866 H   0  0  0  0  0  0  0  0  0  0  0  0
   -9.5619    2.1707  -25.0051 H   0  0  0  0  0  0  0  0  0  0  0  0
   -8.0532    1.2354  -25.1990 H   0  0  0  0  0  0  0  0  0  0  0  0
  -10.9080    0.3689  -23.9120 C   0  0  0  0  0  0  0  0  0  0  0  0
  -11.5958    1.3391  -24.2023 O   0  0  0  0  0  0  0  0  0  0  0  0
  -11.4763   -0.8366  -23.2252 C   0  0  0  0  0  0  0  0  0  0  0  0
  -12.8575   -0.9235  -23.0757 C   0  0  0  0  0  0  0  0  0  0  0  0
  -13.4225   -1.9356  -22.3240 C   0  0  0  0  0  0  0  0  0  0  0  0
  -12.5811   -2.8566  -21.6905 C   0  0  0  0  0  0  0  0  0  0  0  0
  -13.1321   -4.0043  -20.4979 Cl  0  0  0  0  0  0  0  0  0  0  0  0
  -11.2202   -2.8279  -21.9037 C   0  0  0  0  0  0  0  0  0  0  0  0
  -10.6432   -1.8213  -22.6733 C   0  0  0  0  0  0  0  0  0  0  0  0
  -10.6185   -3.5772  -21.4062 H   0  0  0  0  0  0  0  0  0  0  0  0
  -14.4998   -1.9664  -22.2259 H   0  0  0  0  0  0  0  0  0  0  0  0
  -13.4807   -0.1560  -23.5236 H   0  0  0  0  0  0  0  0  0  0  0  0
   -7.7685   -0.7264  -24.1363 H   0  0  0  0  0  0  0  0  0  0  0  0
   -9.1262   -1.6150  -24.9002 H   0  0  0  0  0  0  0  0  0  0  0  0
   -6.2404   -2.3752  -22.6799 H   0  0  0  0  0  0  0  0  0  0  0  0
   -6.6289   -3.3696  -21.2609 H   0  0  0  0  0  0  0  0  0  0  0  0
   -8.8727   -3.6445  -21.9171 H   0  0  0  0  0  0  0  0  0  0  0  0
   -7.6079   -4.7652  -23.7037 H   0  0  0  0  0  0  0  0  0  0  0  0
   -7.4866   -3.2582  -24.6165 H   0  0  0  0  0  0  0  0  0  0  0  0
   -9.0607   -4.0471  -24.4178 H   0  0  0  0  0  0  0  0  0  0  0  0
  1  2  1  0
  2  3  1  0
  3  4  1  0
  4  5  1  0
  5  6  2  0
  6  7  1  0
  7  8  2  0
  8  9  1  0
  9 10  2  0
 10 11  1  0
 11 12  2  0
 12 13  1  0
 13 14  2  0
 13 15  1  0
 12 16  1  0
 11 17  1  0
 10 18  1  0
  8 19  1  0
  6 20  1  0
  4 21  1  0
 21 22  2  0
 21 23  1  0
 23 24  1  6
 24 25  1  0
 25 26  1  0
 26 27  1  0
 27 28  1  0
 28 29  1  0
 29 30  1  0
 30 31  1  0
 31 32  1  0
 32 33  1  0
 33 34  1  0
 33 35  1  0
 32 36  1  0
 32 37  1  0
 30 38  1  0
 30 39  1  0
 29 40  1  0
 29 41  1  0
 28 42  1  0
 27 43  1  0
 27 44  1  0
 26 45  1  0
 26 46  1  0
 25 47  1  0
 47 48  2  0
 47 49  1  0
 49 50  2  0
 50 51  1  0
 51 52  2  0
 52 53  1  0
 52 54  1  0
 54 55  2  0
 54 56  1  0
 51 57  1  0
 50 58  1  0
 24 59  1  0
 24 60  1  0
  3 61  1  0
  3 62  1  0
  2 63  1  1
  1 64  1  0
  1 65  1  0
  1 66  1  0
 23  2  1  0
 33 28  1  0
 55 49  1  0
 14  5  1  0
 55 23  1  0
 14  9  1  0
M  CHG  1  28   1
M  END
>  <cnnaffinities>  (74) 
[6.35685, 6.097]

>  <score>  (74) 
6.35685

>  <index>  (74) 
76

>  <Smiles>  (74) 
C([C@]1(C(N(c2c(nc(c3c(c(c(c(c23)[H])[H])[H])[H])[H])[H])C(=O)[C@]21C(N(C(C([N+]1(C(C(OC(C1([H])[H])([H])[H])([H])[H])([H])[H])[H])([H])[H])([H])[H])C(=O)c1c(c(c(Cl)c(c21)[H])[H])[H])([H])[H])([H])[H])[H])([H])([H])[H]

>  <h>  (74) 
<NA>

>  <Training>  (74) 
True

>  <Success>  (74) 
True

>  <enamine_searched>  (74) 
False

>  <enamine_id>  (74) 
nan

$$$$

     RDKit          3D

 55 60  0  0  0  0  0  0  0  0999 V2000
   -9.9886   -0.9119  -23.5252 C   0  0  0  0  0  0  0  0  0  0  0  0
   -8.6135   -1.2399  -22.9476 C   0  0  1  0  0  0  0  0  0  0  0  0
   -8.1785   -0.3132  -21.7973 C   0  0  0  0  0  0  0  0  0  0  0  0
   -7.2248   -1.1249  -21.0524 N   0  0  0  0  0  0  0  0  0  0  0  0
   -6.4022   -0.6282  -20.0060 C   0  0  0  0  0  0  0  0  0  0  0  0
   -6.6759   -0.9070  -18.6913 C   0  0  0  0  0  0  0  0  0  0  0  0
   -6.0145   -0.3534  -17.6387 N   0  0  0  0  0  0  0  0  0  0  0  0
   -5.0188    0.4596  -17.9018 C   0  0  0  0  0  0  0  0  0  0  0  0
   -4.5711    0.7676  -19.2186 C   0  0  0  0  0  0  0  0  0  0  0  0
   -3.4382    1.5864  -19.4711 C   0  0  0  0  0  0  0  0  0  0  0  0
   -3.0236    1.8161  -20.7524 C   0  0  0  0  0  0  0  0  0  0  0  0
   -3.7219    1.2512  -21.8441 C   0  0  0  0  0  0  0  0  0  0  0  0
   -4.8294    0.4708  -21.6279 C   0  0  0  0  0  0  0  0  0  0  0  0
   -5.2809    0.2107  -20.3089 C   0  0  0  0  0  0  0  0  0  0  0  0
   -5.3635    0.0272  -22.4626 H   0  0  0  0  0  0  0  0  0  0  0  0
   -3.3852    1.4360  -22.8589 H   0  0  0  0  0  0  0  0  0  0  0  0
   -2.1568    2.4410  -20.9472 H   0  0  0  0  0  0  0  0  0  0  0  0
   -2.9149    2.0278  -18.6257 H   0  0  0  0  0  0  0  0  0  0  0  0
   -4.4952    0.9043  -17.0517 H   0  0  0  0  0  0  0  0  0  0  0  0
   -7.4772   -1.5952  -18.4289 H   0  0  0  0  0  0  0  0  0  0  0  0
   -7.3401   -2.4755  -21.3125 C   0  0  0  0  0  0  0  0  0  0  0  0
   -6.6806   -3.3404  -20.7788 O   0  0  0  0  0  0  0  0  0  0  0  0
   -8.4497   -2.6832  -22.3546 C   0  0  1  0  0  0  0  0  0  0  0  0
   -9.7066   -3.1752  -21.5903 C   0  0  0  0  0  0  0  0  0  0  0  0
  -10.7498   -3.6679  -22.4846 N   0  0  0  0  0  0  0  0  0  0  0  0
  -12.1571   -3.5171  -22.0883 C   0  0  0  0  0  0  0  0  0  0  0  0
  -12.9244   -2.4082  -22.7538 C   0  0  0  0  0  0  0  0  0  0  0  0
  -13.5130   -2.3094  -23.9685 C   0  0  0  0  0  0  0  0  0  0  0  0
  -14.1736   -1.1156  -24.0342 O   0  0  0  0  0  0  0  0  0  0  0  0
  -13.9607   -0.5552  -22.8320 C   0  0  0  0  0  0  0  0  0  0  0  0
  -13.2290   -1.2553  -22.0348 N   0  0  0  0  0  0  0  0  0  0  0  0
  -14.4563    0.3840  -22.6241 H   0  0  0  0  0  0  0  0  0  0  0  0
  -13.6281   -2.9368  -24.8365 H   0  0  0  0  0  0  0  0  0  0  0  0
  -12.1771   -3.2696  -21.0241 H   0  0  0  0  0  0  0  0  0  0  0  0
  -12.6463   -4.4850  -22.2451 H   0  0  0  0  0  0  0  0  0  0  0  0
  -10.4004   -4.6284  -23.4040 C   0  0  0  0  0  0  0  0  0  0  0  0
  -11.1735   -5.4339  -23.8793 O   0  0  0  0  0  0  0  0  0  0  0  0
   -8.9788   -4.6584  -23.8456 C   0  0  0  0  0  0  0  0  0  0  0  0
   -8.6347   -5.6299  -24.7885 C   0  0  0  0  0  0  0  0  0  0  0  0
   -7.3567   -5.6939  -25.3008 C   0  0  0  0  0  0  0  0  0  0  0  0
   -6.4277   -4.7825  -24.8093 C   0  0  0  0  0  0  0  0  0  0  0  0
   -5.1772   -4.8333  -25.2975 F   0  0  0  0  0  0  0  0  0  0  0  0
   -6.7348   -3.8419  -23.8416 C   0  0  0  0  0  0  0  0  0  0  0  0
   -8.0495   -3.7415  -23.3630 C   0  0  0  0  0  0  0  0  0  0  0  0
   -5.9330   -3.2339  -23.4378 H   0  0  0  0  0  0  0  0  0  0  0  0
   -7.0762   -6.4324  -26.0469 H   0  0  0  0  0  0  0  0  0  0  0  0
   -9.4032   -6.3306  -25.0982 H   0  0  0  0  0  0  0  0  0  0  0  0
  -10.1354   -2.3701  -20.9915 H   0  0  0  0  0  0  0  0  0  0  0  0
   -9.3925   -3.9556  -20.8826 H   0  0  0  0  0  0  0  0  0  0  0  0
   -9.0400   -0.0403  -21.1667 H   0  0  0  0  0  0  0  0  0  0  0  0
   -7.7286    0.6239  -22.1431 H   0  0  0  0  0  0  0  0  0  0  0  0
   -7.8688   -1.1628  -23.7534 H   0  0  0  0  0  0  0  0  0  0  0  0
   -9.9727    0.0389  -24.0669 H   0  0  0  0  0  0  0  0  0  0  0  0
  -10.2957   -1.6954  -24.2259 H   0  0  0  0  0  0  0  0  0  0  0  0
  -10.7547   -0.8392  -22.7439 H   0  0  0  0  0  0  0  0  0  0  0  0
  1  2  1  0
  2  3  1  0
  3  4  1  0
  4  5  1  0
  5  6  2  0
  6  7  1  0
  7  8  2  0
  8  9  1  0
  9 10  2  0
 10 11  1  0
 11 12  2  0
 12 13  1  0
 13 14  2  0
 13 15  1  0
 12 16  1  0
 11 17  1  0
 10 18  1  0
  8 19  1  0
  6 20  1  0
  4 21  1  0
 21 22  2  0
 21 23  1  0
 23 24  1  1
 24 25  1  0
 25 26  1  0
 26 27  1  0
 27 28  2  0
 28 29  1  0
 29 30  1  0
 30 31  2  0
 30 32  1  0
 28 33  1  0
 26 34  1  0
 26 35  1  0
 25 36  1  0
 36 37  2  0
 36 38  1  0
 38 39  2  0
 39 40  1  0
 40 41  2  0
 41 42  1  0
 41 43  1  0
 43 44  2  0
 43 45  1  0
 40 46  1  0
 39 47  1  0
 24 48  1  0
 24 49  1  0
  3 50  1  0
  3 51  1  0
  2 52  1  6
  1 53  1  0
  1 54  1  0
  1 55  1  0
 23  2  1  0
 31 27  1  0
 44 38  1  0
 14  5  1  0
 44 23  1  0
 14  9  1  0
M  END
>  <cnnaffinities>  (75) 
[6.52231, 6.47733]

>  <score>  (75) 
6.52231

>  <index>  (75) 
77

>  <Smiles>  (75) 
C([C@]1(C(N(c2c(nc(c3c(c(c(c(c23)[H])[H])[H])[H])[H])[H])C(=O)[C@]21C(N(C(c1c(oc(n1)[H])[H])([H])[H])C(=O)c1c(c(c(F)c(c21)[H])[H])[H])([H])[H])([H])[H])[H])([H])([H])[H]

>  <h>  (75) 
<NA>

>  <Training>  (75) 
True

>  <Success>  (75) 
True

>  <enamine_searched>  (75) 
False

>  <enamine_id>  (75) 
nan

$$$$

     RDKit          3D

 56 60  0  0  0  0  0  0  0  0999 V2000
  -14.4772   -0.5140  -22.8104 C   0  0  0  0  0  0  0  0  0  0  0  0
  -13.8378   -1.6996  -22.2635 N   0  0  0  0  0  0  0  0  0  0  0  0
  -12.8736   -2.3367  -22.9959 C   0  0  0  0  0  0  0  0  0  0  0  0
  -12.5916   -1.9634  -24.1193 O   0  0  0  0  0  0  0  0  0  0  0  0
  -12.1703   -3.5342  -22.3306 C   0  0  0  0  0  0  0  0  0  0  0  0
  -10.7642   -3.6418  -22.7158 N   0  0  0  0  0  0  0  0  0  0  0  0
   -9.7766   -3.1563  -21.7593 C   0  0  0  0  0  0  0  0  0  0  0  0
   -8.4493   -2.7056  -22.4202 C   0  0  2  0  0  0  0  0  0  0  0  0
   -7.4091   -2.5732  -21.2905 C   0  0  0  0  0  0  0  0  0  0  0  0
   -6.8901   -3.4829  -20.6723 O   0  0  0  0  0  0  0  0  0  0  0  0
   -7.1773   -1.2343  -21.0566 N   0  0  0  0  0  0  0  0  0  0  0  0
   -6.3623   -0.7541  -20.0044 C   0  0  0  0  0  0  0  0  0  0  0  0
   -6.6602   -0.9996  -18.6861 C   0  0  0  0  0  0  0  0  0  0  0  0
   -6.0257   -0.4063  -17.6414 N   0  0  0  0  0  0  0  0  0  0  0  0
   -5.0397    0.4165  -17.9119 C   0  0  0  0  0  0  0  0  0  0  0  0
   -4.5790    0.6993  -19.2275 C   0  0  0  0  0  0  0  0  0  0  0  0
   -3.4706    1.5528  -19.4679 C   0  0  0  0  0  0  0  0  0  0  0  0
   -3.0548    1.7981  -20.7479 C   0  0  0  0  0  0  0  0  0  0  0  0
   -3.7359    1.2147  -21.8415 C   0  0  0  0  0  0  0  0  0  0  0  0
   -4.8161    0.3939  -21.6300 C   0  0  0  0  0  0  0  0  0  0  0  0
   -5.2600    0.1091  -20.3116 C   0  0  0  0  0  0  0  0  0  0  0  0
   -5.3474   -0.0512  -22.4641 H   0  0  0  0  0  0  0  0  0  0  0  0
   -3.4132    1.4257  -22.8567 H   0  0  0  0  0  0  0  0  0  0  0  0
   -2.2064    2.4504  -20.9338 H   0  0  0  0  0  0  0  0  0  0  0  0
   -2.9775    2.0100  -18.6136 H   0  0  0  0  0  0  0  0  0  0  0  0
   -4.5385    0.8958  -17.0697 H   0  0  0  0  0  0  0  0  0  0  0  0
   -7.4675   -1.6753  -18.4115 H   0  0  0  0  0  0  0  0  0  0  0  0
   -8.0717   -0.3681  -21.8088 C   0  0  0  0  0  0  0  0  0  0  0  0
   -8.4896   -1.2427  -22.9980 C   0  0  2  0  0  0  0  0  0  0  0  0
   -9.7832   -0.7682  -23.6572 C   0  0  0  0  0  0  0  0  0  0  0  0
   -9.6372    0.1993  -24.1555 H   0  0  0  0  0  0  0  0  0  0  0  0
  -10.1223   -1.4821  -24.4114 H   0  0  0  0  0  0  0  0  0  0  0  0
  -10.5913   -0.6396  -22.9240 H   0  0  0  0  0  0  0  0  0  0  0  0
   -7.6916   -1.2189  -23.7565 H   0  0  0  0  0  0  0  0  0  0  0  0
   -8.9524   -0.0927  -21.2037 H   0  0  0  0  0  0  0  0  0  0  0  0
   -7.5810    0.5661  -22.1024 H   0  0  0  0  0  0  0  0  0  0  0  0
   -8.0064   -3.7371  -23.4291 C   0  0  0  0  0  0  0  0  0  0  0  0
   -6.6728   -3.7856  -23.8714 C   0  0  0  0  0  0  0  0  0  0  0  0
   -6.2888   -4.7144  -24.8233 C   0  0  0  0  0  0  0  0  0  0  0  0
   -4.6528   -4.7047  -25.4268 Cl  0  0  0  0  0  0  0  0  0  0  0  0
   -7.1931   -5.6484  -25.3323 C   0  0  0  0  0  0  0  0  0  0  0  0
   -8.4950   -5.6204  -24.8726 C   0  0  0  0  0  0  0  0  0  0  0  0
   -8.9081   -4.6623  -23.9431 C   0  0  0  0  0  0  0  0  0  0  0  0
  -10.3561   -4.6533  -23.5656 C   0  0  0  0  0  0  0  0  0  0  0  0
  -11.0799   -5.5048  -24.0381 O   0  0  0  0  0  0  0  0  0  0  0  0
   -9.2213   -6.3389  -25.2368 H   0  0  0  0  0  0  0  0  0  0  0  0
   -6.8684   -6.3787  -26.0690 H   0  0  0  0  0  0  0  0  0  0  0  0
   -5.9146   -3.1263  -23.4605 H   0  0  0  0  0  0  0  0  0  0  0  0
   -9.5598   -3.9259  -21.0046 H   0  0  0  0  0  0  0  0  0  0  0  0
  -10.2028   -2.3132  -21.2199 H   0  0  0  0  0  0  0  0  0  0  0  0
  -12.2592   -3.4597  -21.2361 H   0  0  0  0  0  0  0  0  0  0  0  0
  -12.6697   -4.4570  -22.6462 H   0  0  0  0  0  0  0  0  0  0  0  0
  -14.2525   -2.1710  -21.4723 H   0  0  0  0  0  0  0  0  0  0  0  0
  -15.5683   -0.5478  -22.7282 H   0  0  0  0  0  0  0  0  0  0  0  0
  -14.1063    0.3959  -22.3218 H   0  0  0  0  0  0  0  0  0  0  0  0
  -14.2069   -0.4749  -23.8660 H   0  0  0  0  0  0  0  0  0  0  0  0
  1  2  1  0
  2  3  1  0
  3  4  2  0
  3  5  1  0
  5  6  1  0
  6  7  1  0
  8  7  1  1
  8  9  1  0
  9 10  2  0
  9 11  1  0
 11 12  1  0
 12 13  2  0
 13 14  1  0
 14 15  2  0
 15 16  1  0
 16 17  2  0
 17 18  1  0
 18 19  2  0
 19 20  1  0
 20 21  2  0
 20 22  1  0
 19 23  1  0
 18 24  1  0
 17 25  1  0
 15 26  1  0
 13 27  1  0
 11 28  1  0
 28 29  1  0
 29 30  1  0
 30 31  1  0
 30 32  1  0
 30 33  1  0
 29 34  1  6
 28 35  1  0
 28 36  1  0
  8 37  1  0
 37 38  2  0
 38 39  1  0
 39 40  1  0
 39 41  2  0
 41 42  1  0
 42 43  2  0
 43 44  1  0
 44 45  2  0
 42 46  1  0
 41 47  1  0
 38 48  1  0
  7 49  1  0
  7 50  1  0
  5 51  1  0
  5 52  1  0
  2 53  1  0
  1 54  1  0
  1 55  1  0
  1 56  1  0
 44  6  1  0
 29  8  1  0
 43 37  1  0
 21 12  1  0
 21 16  1  0
M  END
>  <cnnaffinities>  (76) 
[6.6298]

>  <score>  (76) 
6.6298

>  <index>  (76) 
78

>  <Smiles>  (76) 
C(N(C(=O)C(N1C([C@@]2(C(=O)N(c3c(nc(c4c(c(c(c(c34)[H])[H])[H])[H])[H])[H])C([C@@]2(C([H])([H])[H])[H])([H])[H])c2c(c(Cl)c(c(c2C1=O)[H])[H])[H])([H])[H])([H])[H])[H])([H])([H])[H]

>  <h>  (76) 
<NA>

>  <Training>  (76) 
True

>  <Success>  (76) 
True

>  <enamine_searched>  (76) 
False

>  <enamine_id>  (76) 
nan

$$$$

     RDKit          3D

 45 49  0  0  0  0  0  0  0  0999 V2000
  -10.5694   -2.6572  -22.4972 C   0  0  0  0  0  0  0  0  0  0  0  0
   -9.1666   -2.4381  -22.1784 N   0  0  0  0  0  0  0  0  0  0  0  0
   -8.7544   -1.3877  -21.4043 C   0  0  0  0  0  0  0  0  0  0  0  0
   -9.4286   -0.4624  -21.0077 O   0  0  0  0  0  0  0  0  0  0  0  0
   -7.3618   -1.5445  -21.2116 N   0  0  0  0  0  0  0  0  0  0  0  0
   -6.5973   -0.8699  -20.2004 C   0  0  0  0  0  0  0  0  0  0  0  0
   -6.9133   -1.0614  -18.8762 C   0  0  0  0  0  0  0  0  0  0  0  0
   -6.2212   -0.5428  -17.8286 N   0  0  0  0  0  0  0  0  0  0  0  0
   -5.1825    0.2081  -18.0972 C   0  0  0  0  0  0  0  0  0  0  0  0
   -4.7493    0.5193  -19.4151 C   0  0  0  0  0  0  0  0  0  0  0  0
   -3.6173    1.3535  -19.6389 C   0  0  0  0  0  0  0  0  0  0  0  0
   -3.2253    1.6582  -20.9124 C   0  0  0  0  0  0  0  0  0  0  0  0
   -3.9548    1.1449  -22.0075 C   0  0  0  0  0  0  0  0  0  0  0  0
   -5.0498    0.3377  -21.8148 C   0  0  0  0  0  0  0  0  0  0  0  0
   -5.4772   -0.0167  -20.5047 C   0  0  0  0  0  0  0  0  0  0  0  0
   -5.5978   -0.0466  -22.6675 H   0  0  0  0  0  0  0  0  0  0  0  0
   -3.6468    1.3976  -23.0167 H   0  0  0  0  0  0  0  0  0  0  0  0
   -2.3684    2.3041  -21.0885 H   0  0  0  0  0  0  0  0  0  0  0  0
   -3.0872    1.7550  -18.7780 H   0  0  0  0  0  0  0  0  0  0  0  0
   -4.6280    0.6107  -17.2475 H   0  0  0  0  0  0  0  0  0  0  0  0
   -7.7596   -1.6838  -18.6006 H   0  0  0  0  0  0  0  0  0  0  0  0
   -6.8639   -2.5343  -22.0610 C   0  0  0  0  0  0  0  0  0  0  0  0
   -5.7008   -2.8110  -22.2277 O   0  0  0  0  0  0  0  0  0  0  0  0
   -8.0639   -3.1709  -22.7466 C   0  0  0  0  0  0  0  0  0  0  0  0
   -8.0632   -4.7124  -22.6994 C   0  0  0  0  0  0  0  0  0  0  0  0
   -7.8581   -4.7630  -24.1879 N   0  0  0  0  0  0  0  0  0  0  0  0
   -8.9754   -5.7299  -25.0088 S   0  0  0  0  0  0  0  0  0  0  0  0
   -8.5489   -7.1058  -24.8791 O   0  0  0  0  0  0  0  0  0  0  0  0
  -10.2973   -5.3282  -24.5438 O   0  0  0  0  0  0  0  0  0  0  0  0
   -8.8093   -5.3079  -26.7291 C   0  0  0  0  0  0  0  0  0  0  0  0
   -7.7186   -5.9913  -27.5090 C   0  0  0  0  0  0  0  0  0  0  0  0
   -9.1404   -6.4012  -27.7217 C   0  0  0  0  0  0  0  0  0  0  0  0
   -9.6422   -6.1101  -28.6410 H   0  0  0  0  0  0  0  0  0  0  0  0
   -9.4740   -7.3507  -27.3078 H   0  0  0  0  0  0  0  0  0  0  0  0
   -7.2197   -5.4132  -28.2807 H   0  0  0  0  0  0  0  0  0  0  0  0
   -7.0716   -6.6629  -26.9510 H   0  0  0  0  0  0  0  0  0  0  0  0
   -9.0973   -4.2812  -26.9409 H   0  0  0  0  0  0  0  0  0  0  0  0
   -7.9865   -3.2863  -24.2909 C   0  0  0  0  0  0  0  0  0  0  0  0
   -8.8825   -2.9299  -24.8144 H   0  0  0  0  0  0  0  0  0  0  0  0
   -7.0956   -2.8487  -24.7414 H   0  0  0  0  0  0  0  0  0  0  0  0
   -7.2155   -5.1443  -22.1668 H   0  0  0  0  0  0  0  0  0  0  0  0
   -9.0016   -5.1532  -22.3473 H   0  0  0  0  0  0  0  0  0  0  0  0
  -11.1142   -3.0279  -21.6204 H   0  0  0  0  0  0  0  0  0  0  0  0
  -10.6680   -3.3797  -23.3136 H   0  0  0  0  0  0  0  0  0  0  0  0
  -11.0082   -1.7000  -22.7895 H   0  0  0  0  0  0  0  0  0  0  0  0
  1  2  1  0
  2  3  1  0
  3  4  2  0
  3  5  1  0
  5  6  1  0
  6  7  2  0
  7  8  1  0
  8  9  2  0
  9 10  1  0
 10 11  2  0
 11 12  1  0
 12 13  2  0
 13 14  1  0
 14 15  2  0
 14 16  1  0
 13 17  1  0
 12 18  1  0
 11 19  1  0
  9 20  1  0
  7 21  1  0
  5 22  1  0
 22 23  2  0
 22 24  1  0
 24 25  1  0
 25 26  1  0
 26 27  1  0
 27 28  2  0
 27 29  2  0
 27 30  1  0
 30 31  1  0
 31 32  1  0
 32 33  1  0
 32 34  1  0
 31 35  1  0
 31 36  1  0
 30 37  1  0
 26 38  1  0
 38 39  1  0
 38 40  1  0
 25 41  1  0
 25 42  1  0
  1 43  1  0
  1 44  1  0
  1 45  1  0
 24  2  1  0
 32 30  1  0
 15  6  1  0
 38 24  1  0
 15 10  1  0
M  END
>  <cnnaffinities>  (77) 
[5.05086, 5.3691, 5.05447, 5.66845, 5.66844, 5.06553, 5.48907]

>  <score>  (77) 
5.05086

>  <index>  (77) 
79

>  <Smiles>  (77) 
C(N1C(=O)N(c2c(nc(c3c(c(c(c(c23)[H])[H])[H])[H])[H])[H])C(=O)C21C(N(S(=O)(=O)C1(C(C1([H])[H])([H])[H])[H])C2([H])[H])([H])[H])([H])([H])[H]

>  <h>  (77) 
<NA>

>  <Training>  (77) 
True

>  <Success>  (77) 
True

>  <enamine_searched>  (77) 
False

>  <enamine_id>  (77) 
nan

$$$$

     RDKit          3D

 60 65  0  0  0  0  0  0  0  0999 V2000
   -8.9250   -7.8523  -25.8529 C   0  0  0  0  0  0  0  0  0  0  0  0
   -8.1865   -6.8481  -25.1141 N   0  0  0  0  0  0  0  0  0  0  0  0
   -7.4437   -7.1498  -24.0178 C   0  0  0  0  0  0  0  0  0  0  0  0
   -7.5264   -8.2037  -23.4114 O   0  0  0  0  0  0  0  0  0  0  0  0
   -6.4952   -6.0640  -23.5753 C   0  0  0  0  0  0  0  0  0  0  0  0
   -6.7998   -4.7270  -23.9751 N   0  0  0  0  0  0  0  0  0  0  0  0
   -7.9845   -4.1545  -23.3875 C   0  0  0  0  0  0  0  0  0  0  0  0
   -7.8054   -2.6453  -23.1747 C   0  0  2  0  0  0  0  0  0  0  0  0
   -6.8362   -2.4181  -21.9938 C   0  0  0  0  0  0  0  0  0  0  0  0
   -5.7744   -2.9635  -21.7693 O   0  0  0  0  0  0  0  0  0  0  0  0
   -7.3695   -1.4502  -21.1861 N   0  0  0  0  0  0  0  0  0  0  0  0
   -6.5929   -0.8446  -20.1786 C   0  0  0  0  0  0  0  0  0  0  0  0
   -6.9416   -1.0329  -18.8678 C   0  0  0  0  0  0  0  0  0  0  0  0
   -6.2640   -0.5198  -17.8161 N   0  0  0  0  0  0  0  0  0  0  0  0
   -5.2127    0.2152  -18.0949 C   0  0  0  0  0  0  0  0  0  0  0  0
   -4.7611    0.5043  -19.4140 C   0  0  0  0  0  0  0  0  0  0  0  0
   -3.6309    1.3309  -19.6360 C   0  0  0  0  0  0  0  0  0  0  0  0
   -3.2431    1.6425  -20.9078 C   0  0  0  0  0  0  0  0  0  0  0  0
   -3.9624    1.1368  -22.0159 C   0  0  0  0  0  0  0  0  0  0  0  0
   -5.0526    0.3202  -21.8356 C   0  0  0  0  0  0  0  0  0  0  0  0
   -5.4707   -0.0249  -20.5107 C   0  0  0  0  0  0  0  0  0  0  0  0
   -5.5946   -0.0591  -22.7051 H   0  0  0  0  0  0  0  0  0  0  0  0
   -3.6487    1.4123  -23.0186 H   0  0  0  0  0  0  0  0  0  0  0  0
   -2.3924    2.2979  -21.0737 H   0  0  0  0  0  0  0  0  0  0  0  0
   -3.1124    1.7305  -18.7695 H   0  0  0  0  0  0  0  0  0  0  0  0
   -4.6593    0.6280  -17.2530 H   0  0  0  0  0  0  0  0  0  0  0  0
   -7.8089   -1.6500  -18.6356 H   0  0  0  0  0  0  0  0  0  0  0  0
   -8.6611   -0.9560  -21.5961 C   0  0  0  0  0  0  0  0  0  0  0  0
   -9.1146   -1.9470  -22.6871 C   0  0  2  0  0  0  0  0  0  0  0  0
  -10.2026   -2.8779  -22.1280 C   0  0  0  0  0  0  0  0  0  0  0  0
  -11.0528   -2.2831  -21.7736 H   0  0  0  0  0  0  0  0  0  0  0  0
  -10.5822   -3.5612  -22.8934 H   0  0  0  0  0  0  0  0  0  0  0  0
   -9.8462   -3.4799  -21.2832 H   0  0  0  0  0  0  0  0  0  0  0  0
   -9.5688   -1.4155  -23.5305 H   0  0  0  0  0  0  0  0  0  0  0  0
   -9.3460   -0.9437  -20.7484 H   0  0  0  0  0  0  0  0  0  0  0  0
   -8.5996    0.0763  -21.9644 H   0  0  0  0  0  0  0  0  0  0  0  0
   -7.2487   -2.0211  -24.4574 C   0  0  0  0  0  0  0  0  0  0  0  0
   -7.4221   -0.6579  -24.7453 C   0  0  0  0  0  0  0  0  0  0  0  0
   -6.9127   -0.1109  -25.9150 C   0  0  0  0  0  0  0  0  0  0  0  0
   -7.1572    1.5910  -26.2353 Cl  0  0  0  0  0  0  0  0  0  0  0  0
   -6.2257   -0.8886  -26.8475 C   0  0  0  0  0  0  0  0  0  0  0  0
   -6.0379   -2.2271  -26.5675 C   0  0  0  0  0  0  0  0  0  0  0  0
   -6.5179   -2.7832  -25.3781 C   0  0  0  0  0  0  0  0  0  0  0  0
   -6.2307   -4.2202  -25.1193 C   0  0  0  0  0  0  0  0  0  0  0  0
   -5.5421   -4.9081  -25.8571 O   0  0  0  0  0  0  0  0  0  0  0  0
   -5.5047   -2.8589  -27.2720 H   0  0  0  0  0  0  0  0  0  0  0  0
   -5.8554   -0.4387  -27.7647 H   0  0  0  0  0  0  0  0  0  0  0  0
   -7.9717   -0.0058  -24.0730 H   0  0  0  0  0  0  0  0  0  0  0  0
   -8.1324   -4.6490  -22.4286 H   0  0  0  0  0  0  0  0  0  0  0  0
   -8.8632   -4.3469  -24.0242 H   0  0  0  0  0  0  0  0  0  0  0  0
   -5.9053   -6.2293  -22.2040 C   0  0  0  0  0  0  0  0  0  0  0  0
   -5.0373   -6.3896  -23.3957 C   0  0  0  0  0  0  0  0  0  0  0  0
   -4.6827   -7.3815  -23.6615 H   0  0  0  0  0  0  0  0  0  0  0  0
   -4.3910   -5.5610  -23.6603 H   0  0  0  0  0  0  0  0  0  0  0  0
   -5.8222   -5.3062  -21.6364 H   0  0  0  0  0  0  0  0  0  0  0  0
   -6.1599   -7.1560  -21.7017 H   0  0  0  0  0  0  0  0  0  0  0  0
   -7.9138   -6.0307  -25.6325 H   0  0  0  0  0  0  0  0  0  0  0  0
   -8.2566   -8.5959  -26.3006 H   0  0  0  0  0  0  0  0  0  0  0  0
   -9.6450   -8.3479  -25.1997 H   0  0  0  0  0  0  0  0  0  0  0  0
   -9.4800   -7.3535  -26.6513 H   0  0  0  0  0  0  0  0  0  0  0  0
  1  2  1  0
  2  3  1  0
  3  4  2  0
  3  5  1  0
  5  6  1  0
  6  7  1  0
  8  7  1  6
  8  9  1  0
  9 10  2  0
  9 11  1  0
 11 12  1  0
 12 13  2  0
 13 14  1  0
 14 15  2  0
 15 16  1  0
 16 17  2  0
 17 18  1  0
 18 19  2  0
 19 20  1  0
 20 21  2  0
 20 22  1  0
 19 23  1  0
 18 24  1  0
 17 25  1  0
 15 26  1  0
 13 27  1  0
 11 28  1  0
 28 29  1  0
 29 30  1  0
 30 31  1  0
 30 32  1  0
 30 33  1  0
 29 34  1  6
 28 35  1  0
 28 36  1  0
  8 37  1  0
 37 38  2  0
 38 39  1  0
 39 40  1  0
 39 41  2  0
 41 42  1  0
 42 43  2  0
 43 44  1  0
 44 45  2  0
 42 46  1  0
 41 47  1  0
 38 48  1  0
  7 49  1  0
  7 50  1  0
  5 51  1  0
 51 52  1  0
 52 53  1  0
 52 54  1  0
 51 55  1  0
 51 56  1  0
  2 57  1  0
  1 58  1  0
  1 59  1  0
  1 60  1  0
 52  5  1  0
 44  6  1  0
 29  8  1  0
 43 37  1  0
 21 12  1  0
 21 16  1  0
M  END
>  <cnnaffinities>  (78) 
[6.05433, 6.29944]

>  <score>  (78) 
6.05433

>  <index>  (78) 
80

>  <Smiles>  (78) 
C(N(C(=O)C1(N2C([C@@]3(C(=O)N(c4c(nc(c5c(c(c(c(c45)[H])[H])[H])[H])[H])[H])C([C@@]3(C([H])([H])[H])[H])([H])[H])c3c(c(Cl)c(c(c3C2=O)[H])[H])[H])([H])[H])C(C1([H])[H])([H])[H])[H])([H])([H])[H]

>  <h>  (78) 
<NA>

>  <Training>  (78) 
True

>  <Success>  (78) 
True

>  <enamine_searched>  (78) 
False

>  <enamine_id>  (78) 
nan

$$$$

     RDKit          3D

 36 38  0  0  0  0  0  0  0  0999 V2000
   -8.5018    0.7116  -21.4640 O   0  0  0  0  0  0  0  0  0  0  0  0
   -8.3859   -0.4023  -21.9328 C   0  0  0  0  0  0  0  0  0  0  0  0
   -7.4389   -1.4332  -21.2751 C   0  0  0  0  0  0  0  0  0  0  0  0
   -6.5820   -0.8280  -20.1837 C   0  0  0  0  0  0  0  0  0  0  0  0
   -6.8797   -1.0386  -18.8619 C   0  0  0  0  0  0  0  0  0  0  0  0
   -6.1965   -0.5335  -17.7980 N   0  0  0  0  0  0  0  0  0  0  0  0
   -5.1582    0.2222  -18.0648 C   0  0  0  0  0  0  0  0  0  0  0  0
   -4.7246    0.5334  -19.3817 C   0  0  0  0  0  0  0  0  0  0  0  0
   -3.5981    1.3632  -19.6219 C   0  0  0  0  0  0  0  0  0  0  0  0
   -3.2094    1.6574  -20.9017 C   0  0  0  0  0  0  0  0  0  0  0  0
   -3.9333    1.1296  -21.9943 C   0  0  0  0  0  0  0  0  0  0  0  0
   -5.0270    0.3227  -21.7876 C   0  0  0  0  0  0  0  0  0  0  0  0
   -5.4548    0.0010  -20.4729 C   0  0  0  0  0  0  0  0  0  0  0  0
   -5.5779   -0.0670  -22.6370 H   0  0  0  0  0  0  0  0  0  0  0  0
   -3.6228    1.3728  -23.0054 H   0  0  0  0  0  0  0  0  0  0  0  0
   -2.3534    2.3020  -21.0864 H   0  0  0  0  0  0  0  0  0  0  0  0
   -3.0600    1.7758  -18.7715 H   0  0  0  0  0  0  0  0  0  0  0  0
   -4.6021    0.6272  -17.2167 H   0  0  0  0  0  0  0  0  0  0  0  0
   -7.7290   -1.6595  -18.5853 H   0  0  0  0  0  0  0  0  0  0  0  0
   -8.0415   -2.2453  -20.8446 H   0  0  0  0  0  0  0  0  0  0  0  0
   -6.8032   -1.8995  -22.0403 H   0  0  0  0  0  0  0  0  0  0  0  0
   -9.0608   -0.7712  -23.0897 N   0  0  0  0  0  0  0  0  0  0  0  0
   -9.3681   -2.1604  -23.4044 C   0  0  0  0  0  0  0  0  0  0  0  0
  -10.4470   -2.7808  -22.5514 C   0  0  0  0  0  0  0  0  0  0  0  0
  -11.5707   -2.1755  -22.1565 C   0  0  0  0  0  0  0  0  0  0  0  0
  -12.0206   -0.7915  -22.4166 C   0  0  0  0  0  0  0  0  0  0  0  0
  -11.3801    0.2155  -23.0198 C   0  0  0  0  0  0  0  0  0  0  0  0
  -10.0067    0.1959  -23.6421 C   0  0  0  0  0  0  0  0  0  0  0  0
   -9.5588    1.1919  -23.5955 H   0  0  0  0  0  0  0  0  0  0  0  0
  -10.1142   -0.0408  -24.7076 H   0  0  0  0  0  0  0  0  0  0  0  0
  -11.8932    1.1785  -23.0818 H   0  0  0  0  0  0  0  0  0  0  0  0
  -13.0203   -0.5813  -22.0388 H   0  0  0  0  0  0  0  0  0  0  0  0
  -12.2791   -2.7641  -21.5753 H   0  0  0  0  0  0  0  0  0  0  0  0
  -10.2839   -3.8157  -22.2459 H   0  0  0  0  0  0  0  0  0  0  0  0
   -9.6850   -2.1764  -24.4538 H   0  0  0  0  0  0  0  0  0  0  0  0
   -8.4507   -2.7539  -23.3596 H   0  0  0  0  0  0  0  0  0  0  0  0
  1  2  2  0
  2  3  1  0
  3  4  1  0
  4  5  2  0
  5  6  1  0
  6  7  2  0
  7  8  1  0
  8  9  2  0
  9 10  1  0
 10 11  2  0
 11 12  1  0
 12 13  2  0
 12 14  1  0
 11 15  1  0
 10 16  1  0
  9 17  1  0
  7 18  1  0
  5 19  1  0
  3 20  1  0
  3 21  1  0
  2 22  1  0
 22 23  1  0
 23 24  1  0
 24 25  2  0
 25 26  1  0
 26 27  2  0
 27 28  1  0
 28 29  1  0
 28 30  1  0
 27 31  1  0
 26 32  1  0
 25 33  1  0
 24 34  1  0
 23 35  1  0
 23 36  1  0
 13  4  1  0
 28 22  1  0
 13  8  1  0
M  END
>  <cnnaffinities>  (79) 
[4.53054, 4.53059]

>  <score>  (79) 
4.53054

>  <index>  (79) 
81

>  <Smiles>  (79) 
O=C(C(c1c(nc(c2c(c(c(c(c12)[H])[H])[H])[H])[H])[H])([H])[H])N1C(C(=C(C(=C(C1([H])[H])[H])[H])[H])[H])([H])[H]

>  <h>  (79) 
<NA>

>  <Training>  (79) 
True

>  <Success>  (79) 
True

>  <enamine_searched>  (79) 
False

>  <enamine_id>  (79) 
nan

$$$$

     RDKit          3D

 54 57  0  0  0  0  0  0  0  0999 V2000
  -10.7323    0.3871  -25.3984 C   0  0  0  0  0  0  0  0  0  0  0  0
   -9.8363   -0.5988  -24.9272 O   0  0  0  0  0  0  0  0  0  0  0  0
   -8.5015   -0.5198  -25.2206 C   0  0  0  0  0  0  0  0  0  0  0  0
   -7.9446    0.5086  -25.9866 C   0  0  0  0  0  0  0  0  0  0  0  0
   -6.5729    0.5268  -26.2369 C   0  0  0  0  0  0  0  0  0  0  0  0
   -5.7481   -0.4651  -25.7276 C   0  0  0  0  0  0  0  0  0  0  0  0
   -6.3156   -1.4737  -24.9541 C   0  0  0  0  0  0  0  0  0  0  0  0
   -7.6791   -1.5416  -24.6897 C   0  0  0  0  0  0  0  0  0  0  0  0
   -8.2984   -2.6706  -23.8509 C   0  0  1  0  0  0  0  0  0  0  0  0
   -9.1407   -3.6538  -24.6922 C   0  0  0  0  0  0  0  0  0  0  0  0
   -8.4105   -4.8644  -25.2724 C   0  0  1  0  0  0  0  0  0  0  0  0
   -7.5086   -4.5373  -26.4630 C   0  0  0  0  0  0  0  0  0  0  0  0
   -6.6826   -3.8743  -26.1903 H   0  0  0  0  0  0  0  0  0  0  0  0
   -7.0750   -5.4496  -26.8901 H   0  0  0  0  0  0  0  0  0  0  0  0
   -8.0724   -4.0325  -27.2551 H   0  0  0  0  0  0  0  0  0  0  0  0
   -7.6725   -5.5499  -24.1293 C   0  0  0  0  0  0  0  0  0  0  0  0
   -6.7087   -4.6184  -23.4093 C   0  0  0  0  0  0  0  0  0  0  0  0
   -7.3467   -3.3675  -22.9711 N   0  0  0  0  0  0  0  0  0  0  0  0
   -6.7450   -2.7413  -21.8869 C   0  0  0  0  0  0  0  0  0  0  0  0
   -5.7263   -3.1890  -21.3899 O   0  0  0  0  0  0  0  0  0  0  0  0
   -7.4030   -1.4737  -21.2820 C   0  0  0  0  0  0  0  0  0  0  0  0
   -6.5762   -0.8356  -20.1854 C   0  0  0  0  0  0  0  0  0  0  0  0
   -6.8724   -1.0480  -18.8646 C   0  0  0  0  0  0  0  0  0  0  0  0
   -6.1931   -0.5389  -17.7985 N   0  0  0  0  0  0  0  0  0  0  0  0
   -5.1599    0.2224  -18.0661 C   0  0  0  0  0  0  0  0  0  0  0  0
   -4.7209    0.5280  -19.3815 C   0  0  0  0  0  0  0  0  0  0  0  0
   -3.5932    1.3536  -19.6240 C   0  0  0  0  0  0  0  0  0  0  0  0
   -3.1935    1.6321  -20.9014 C   0  0  0  0  0  0  0  0  0  0  0  0
   -3.9072    1.0897  -21.9947 C   0  0  0  0  0  0  0  0  0  0  0  0
   -5.0034    0.2865  -21.7908 C   0  0  0  0  0  0  0  0  0  0  0  0
   -5.4445   -0.0152  -20.4768 C   0  0  0  0  0  0  0  0  0  0  0  0
   -5.5427   -0.1204  -22.6446 H   0  0  0  0  0  0  0  0  0  0  0  0
   -3.5855    1.3200  -23.0061 H   0  0  0  0  0  0  0  0  0  0  0  0
   -2.3329    2.2732  -21.0866 H   0  0  0  0  0  0  0  0  0  0  0  0
   -3.0605    1.7730  -18.7716 H   0  0  0  0  0  0  0  0  0  0  0  0
   -4.6046    0.6283  -17.2158 H   0  0  0  0  0  0  0  0  0  0  0  0
   -7.7205   -1.6716  -18.5859 H   0  0  0  0  0  0  0  0  0  0  0  0
   -7.6275   -0.7396  -22.0679 H   0  0  0  0  0  0  0  0  0  0  0  0
   -8.3736   -1.7756  -20.8624 H   0  0  0  0  0  0  0  0  0  0  0  0
   -6.3148   -5.1115  -22.5192 H   0  0  0  0  0  0  0  0  0  0  0  0
   -5.8291   -4.4365  -24.0459 H   0  0  0  0  0  0  0  0  0  0  0  0
   -8.4011   -5.9326  -23.4088 H   0  0  0  0  0  0  0  0  0  0  0  0
   -7.1266   -6.4211  -24.5072 H   0  0  0  0  0  0  0  0  0  0  0  0
   -9.1798   -5.5591  -25.6447 H   0  0  0  0  0  0  0  0  0  0  0  0
   -9.6144   -3.0900  -25.4966 H   0  0  0  0  0  0  0  0  0  0  0  0
   -9.9586   -4.0205  -24.0603 H   0  0  0  0  0  0  0  0  0  0  0  0
   -9.0169   -2.1798  -23.1888 H   0  0  0  0  0  0  0  0  0  0  0  0
   -5.6678   -2.2513  -24.5664 H   0  0  0  0  0  0  0  0  0  0  0  0
   -4.6760   -0.4614  -25.9170 H   0  0  0  0  0  0  0  0  0  0  0  0
   -6.1420    1.3281  -26.8290 H   0  0  0  0  0  0  0  0  0  0  0  0
   -8.5702    1.3015  -26.3905 H   0  0  0  0  0  0  0  0  0  0  0  0
  -11.7118    0.0952  -25.0256 H   0  0  0  0  0  0  0  0  0  0  0  0
  -10.7937    0.4370  -26.4925 H   0  0  0  0  0  0  0  0  0  0  0  0
  -10.5203    1.3940  -25.0178 H   0  0  0  0  0  0  0  0  0  0  0  0
  1  2  1  0
  2  3  1  0
  3  4  2  0
  4  5  1  0
  5  6  2  0
  6  7  1  0
  7  8  2  0
  8  9  1  0
  9 10  1  0
 10 11  1  0
 11 12  1  0
 12 13  1  0
 12 14  1  0
 12 15  1  0
 11 16  1  0
 16 17  1  0
 17 18  1  0
 18 19  1  0
 19 20  2  0
 19 21  1  0
 21 22  1  0
 22 23  2  0
 23 24  1  0
 24 25  2  0
 25 26  1  0
 26 27  2  0
 27 28  1  0
 28 29  2  0
 29 30  1  0
 30 31  2  0
 30 32  1  0
 29 33  1  0
 28 34  1  0
 27 35  1  0
 25 36  1  0
 23 37  1  0
 21 38  1  0
 21 39  1  0
 17 40  1  0
 17 41  1  0
 16 42  1  0
 16 43  1  0
 11 44  1  6
 10 45  1  0
 10 46  1  0
  9 47  1  1
  7 48  1  0
  6 49  1  0
  5 50  1  0
  4 51  1  0
  1 52  1  0
  1 53  1  0
  1 54  1  0
  8  3  1  0
 18  9  1  0
 31 22  1  0
 31 26  1  0
M  END
>  <cnnaffinities>  (80) 
[5.49376]

>  <score>  (80) 
5.49376

>  <index>  (80) 
82

>  <Smiles>  (80) 
C(Oc1c(c(c(c(c1[C@]1(C([C@@](C([H])([H])[H])(C(C(N1C(=O)C(c1c(nc(c2c(c(c(c(c12)[H])[H])[H])[H])[H])[H])([H])[H])([H])[H])([H])[H])[H])([H])[H])[H])[H])[H])[H])[H])([H])([H])[H]

>  <h>  (80) 
<NA>

>  <Training>  (80) 
True

>  <Success>  (80) 
True

>  <enamine_searched>  (80) 
False

>  <enamine_id>  (80) 
nan

$$$$

     RDKit          3D

 46 50  0  0  0  0  0  0  0  0999 V2000
   -5.9917   -4.3434  -26.9530 N   0  0  0  0  0  0  0  0  0  0  0  0
   -5.7265   -2.7255  -26.7579 S   0  0  0  0  0  0  0  0  0  0  0  0
   -4.7550   -2.6286  -25.6826 O   0  0  0  0  0  0  0  0  0  0  0  0
   -5.4726   -2.2147  -28.0920 O   0  0  0  0  0  0  0  0  0  0  0  0
   -7.2541   -2.0171  -26.1882 C   0  0  0  0  0  0  0  0  0  0  0  0
   -8.1342   -1.4362  -27.0984 C   0  0  0  0  0  0  0  0  0  0  0  0
   -9.3147   -0.8811  -26.6399 C   0  0  0  0  0  0  0  0  0  0  0  0
   -9.6293   -0.9117  -25.2792 C   0  0  0  0  0  0  0  0  0  0  0  0
   -8.7709   -1.5426  -24.3752 C   0  0  0  0  0  0  0  0  0  0  0  0
   -7.5806   -2.0933  -24.8446 C   0  0  0  0  0  0  0  0  0  0  0  0
   -6.8955   -2.5718  -24.1545 H   0  0  0  0  0  0  0  0  0  0  0  0
   -9.0931   -1.5969  -22.8948 C   0  0  1  0  0  0  0  0  0  0  0  0
  -10.5846   -1.2796  -22.6670 C   0  0  0  0  0  0  0  0  0  0  0  0
  -11.0314   -0.1022  -23.5216 C   0  0  0  0  0  0  0  0  0  0  0  0
  -10.8071   -0.3394  -24.9140 O   0  0  0  0  0  0  0  0  0  0  0  0
  -12.1126    0.0425  -23.4370 H   0  0  0  0  0  0  0  0  0  0  0  0
  -10.5193    0.8172  -23.2089 H   0  0  0  0  0  0  0  0  0  0  0  0
  -10.7347   -1.0722  -21.6055 H   0  0  0  0  0  0  0  0  0  0  0  0
  -11.1837   -2.1650  -22.9198 H   0  0  0  0  0  0  0  0  0  0  0  0
   -8.7141   -2.8478  -22.2801 N   0  0  0  0  0  0  0  0  0  0  0  0
   -7.7983   -2.7522  -21.2767 C   0  0  0  0  0  0  0  0  0  0  0  0
   -7.3364   -3.6497  -20.6107 O   0  0  0  0  0  0  0  0  0  0  0  0
   -7.4515   -1.3824  -21.1901 N   0  0  0  0  0  0  0  0  0  0  0  0
   -6.5992   -0.8354  -20.1853 C   0  0  0  0  0  0  0  0  0  0  0  0
   -6.8996   -1.0661  -18.8669 C   0  0  0  0  0  0  0  0  0  0  0  0
   -6.2123   -0.5431  -17.8240 N   0  0  0  0  0  0  0  0  0  0  0  0
   -5.1763    0.2123  -18.0927 C   0  0  0  0  0  0  0  0  0  0  0  0
   -4.7333    0.5143  -19.4074 C   0  0  0  0  0  0  0  0  0  0  0  0
   -3.6004    1.3425  -19.6367 C   0  0  0  0  0  0  0  0  0  0  0  0
   -3.1866    1.6135  -20.9113 C   0  0  0  0  0  0  0  0  0  0  0  0
   -3.8872    1.0604  -22.0057 C   0  0  0  0  0  0  0  0  0  0  0  0
   -4.9842    0.2590  -21.8060 C   0  0  0  0  0  0  0  0  0  0  0  0
   -5.4530   -0.0281  -20.4958 C   0  0  0  0  0  0  0  0  0  0  0  0
   -5.5198   -0.1484  -22.6561 H   0  0  0  0  0  0  0  0  0  0  0  0
   -3.5606    1.2793  -23.0167 H   0  0  0  0  0  0  0  0  0  0  0  0
   -2.3265    2.2553  -21.0913 H   0  0  0  0  0  0  0  0  0  0  0  0
   -3.0804    1.7627  -18.7805 H   0  0  0  0  0  0  0  0  0  0  0  0
   -4.6273    0.6164  -17.2420 H   0  0  0  0  0  0  0  0  0  0  0  0
   -7.7486   -1.6884  -18.5953 H   0  0  0  0  0  0  0  0  0  0  0  0
   -8.2019   -0.6256  -22.0960 C   0  0  0  0  0  0  0  0  0  0  0  0
   -8.1629    0.5724  -22.2130 O   0  0  0  0  0  0  0  0  0  0  0  0
   -9.1483   -3.7263  -22.5109 H   0  0  0  0  0  0  0  0  0  0  0  0
  -10.0119   -0.4066  -27.3173 H   0  0  0  0  0  0  0  0  0  0  0  0
   -7.8804   -1.4158  -28.1526 H   0  0  0  0  0  0  0  0  0  0  0  0
   -6.1673   -4.8130  -26.0719 H   0  0  0  0  0  0  0  0  0  0  0  0
   -6.6553   -4.5410  -27.6934 H   0  0  0  0  0  0  0  0  0  0  0  0
  1  2  1  0
  2  3  2  0
  2  4  2  0
  2  5  1  0
  5  6  2  0
  6  7  1  0
  7  8  2  0
  8  9  1  0
  9 10  2  0
 10 11  1  0
  9 12  1  0
 12 13  1  0
 13 14  1  0
 14 15  1  0
 14 16  1  0
 14 17  1  0
 13 18  1  0
 13 19  1  0
 12 20  1  1
 20 21  1  0
 21 22  2  0
 21 23  1  0
 23 24  1  0
 24 25  2  0
 25 26  1  0
 26 27  2  0
 27 28  1  0
 28 29  2  0
 29 30  1  0
 30 31  2  0
 31 32  1  0
 32 33  2  0
 32 34  1  0
 31 35  1  0
 30 36  1  0
 29 37  1  0
 27 38  1  0
 25 39  1  0
 23 40  1  0
 40 41  2  0
 20 42  1  0
  7 43  1  0
  6 44  1  0
  1 45  1  0
  1 46  1  0
 10  5  1  0
 40 12  1  0
 15  8  1  0
 33 24  1  0
 33 28  1  0
M  END
>  <cnnaffinities>  (81) 
[5.68717, 5.53374, 5.57955]

>  <score>  (81) 
5.68717

>  <index>  (81) 
83

>  <Smiles>  (81) 
N(S(=O)(=O)c1c(c(c2c(c1[H])[C@@]1(C(C(O2)([H])[H])([H])[H])N(C(=O)N(c2c(nc(c3c(c(c(c(c23)[H])[H])[H])[H])[H])[H])C1=O)[H])[H])[H])([H])[H]

>  <h>  (81) 
<NA>

>  <Training>  (81) 
True

>  <Success>  (81) 
True

>  <enamine_searched>  (81) 
False

>  <enamine_id>  (81) 
nan

$$$$

     RDKit          3D

 63 68  0  0  0  0  0  0  0  0999 V2000
   -8.3383   -4.1876  -23.4421 C   0  0  0  0  0  0  0  0  0  0  0  0
   -8.5525   -2.9852  -22.5430 C   0  0  1  0  0  0  0  0  0  0  0  0
   -7.3977   -2.7775  -21.5592 C   0  0  0  0  0  0  0  0  0  0  0  0
   -7.4723   -1.3643  -21.2520 N   0  0  0  0  0  0  0  0  0  0  0  0
   -6.6931   -0.7702  -20.2277 C   0  0  0  0  0  0  0  0  0  0  0  0
   -7.0122   -1.0253  -18.9178 C   0  0  0  0  0  0  0  0  0  0  0  0
   -6.3456   -0.5319  -17.8461 N   0  0  0  0  0  0  0  0  0  0  0  0
   -5.2998    0.2221  -18.0884 C   0  0  0  0  0  0  0  0  0  0  0  0
   -4.8282    0.5311  -19.3956 C   0  0  0  0  0  0  0  0  0  0  0  0
   -3.6696    1.3291  -19.5907 C   0  0  0  0  0  0  0  0  0  0  0  0
   -3.2115    1.5894  -20.8521 C   0  0  0  0  0  0  0  0  0  0  0  0
   -3.8922    1.0666  -21.9751 C   0  0  0  0  0  0  0  0  0  0  0  0
   -5.0219    0.3035  -21.8132 C   0  0  0  0  0  0  0  0  0  0  0  0
   -5.5302    0.0211  -20.5119 C   0  0  0  0  0  0  0  0  0  0  0  0
   -5.5412   -0.0829  -22.6859 H   0  0  0  0  0  0  0  0  0  0  0  0
   -3.5189    1.2794  -22.9724 H   0  0  0  0  0  0  0  0  0  0  0  0
   -2.3268    2.2032  -20.9988 H   0  0  0  0  0  0  0  0  0  0  0  0
   -3.1676    1.7307  -18.7140 H   0  0  0  0  0  0  0  0  0  0  0  0
   -4.7585    0.6215  -17.2291 H   0  0  0  0  0  0  0  0  0  0  0  0
   -7.8718   -1.6546  -18.6920 H   0  0  0  0  0  0  0  0  0  0  0  0
   -8.2211   -0.6389  -22.1563 C   0  0  0  0  0  0  0  0  0  0  0  0
   -8.3737    0.5631  -22.1038 O   0  0  0  0  0  0  0  0  0  0  0  0
   -8.7657   -1.5964  -23.2414 C   0  0  1  0  0  0  0  0  0  0  0  0
   -7.8991   -1.3584  -24.5033 C   0  0  0  0  0  0  0  0  0  0  0  0
   -8.5116   -1.7950  -25.7564 N   0  0  0  0  0  0  0  0  0  0  0  0
   -7.6295   -2.1043  -26.8793 C   0  0  0  0  0  0  0  0  0  0  0  0
   -7.5300   -3.6117  -27.1239 C   0  0  0  0  0  0  0  0  0  0  0  0
   -6.5515   -4.2502  -26.7739 O   0  0  0  0  0  0  0  0  0  0  0  0
   -8.6150   -4.1563  -27.7454 N   0  0  0  0  0  0  0  0  0  0  0  0
   -8.8782   -5.5870  -27.7831 C   0  0  0  0  0  0  0  0  0  0  0  0
   -9.7858   -5.9940  -26.7063 C   0  0  0  0  0  0  0  0  0  0  0  0
   -9.2271   -5.8955  -25.4462 F   0  0  0  0  0  0  0  0  0  0  0  0
  -10.6919   -6.9951  -26.7192 C   0  0  0  0  0  0  0  0  0  0  0  0
  -10.8916   -6.9898  -26.9637 C   0  0  0  0  0  0  0  0  0  0  0  0
  -11.2699   -6.8344  -28.4886 H   0  0  0  0  0  0  0  0  0  0  0  0
  -10.5536   -8.2471  -26.9734 H   0  0  0  0  0  0  0  0  0  0  0  0
  -12.0339   -6.5260  -26.9496 H   0  0  0  0  0  0  0  0  0  0  0  0
  -10.8131   -7.2930  -25.5802 H   0  0  0  0  0  0  0  0  0  0  0  0
   -9.2553   -5.8255  -28.7925 H   0  0  0  0  0  0  0  0  0  0  0  0
   -7.9464   -6.1229  -27.6220 H   0  0  0  0  0  0  0  0  0  0  0  0
   -9.4206   -3.5489  -27.8582 H   0  0  0  0  0  0  0  0  0  0  0  0
   -8.0101   -1.5931  -27.7703 H   0  0  0  0  0  0  0  0  0  0  0  0
   -6.6310   -1.7260  -26.6504 H   0  0  0  0  0  0  0  0  0  0  0  0
   -9.8448   -1.6941  -26.0138 C   0  0  0  0  0  0  0  0  0  0  0  0
  -10.3093   -1.9315  -27.1321 O   0  0  0  0  0  0  0  0  0  0  0  0
  -10.7144   -1.3115  -24.8684 C   0  0  0  0  0  0  0  0  0  0  0  0
  -12.0526   -1.0142  -25.1290 C   0  0  0  0  0  0  0  0  0  0  0  0
  -12.9343   -0.7723  -24.0967 C   0  0  0  0  0  0  0  0  0  0  0  0
  -12.4476   -0.8468  -22.7969 C   0  0  0  0  0  0  0  0  0  0  0  0
  -13.3118   -0.6641  -21.7896 F   0  0  0  0  0  0  0  0  0  0  0  0
  -11.1215   -1.1065  -22.5114 C   0  0  0  0  0  0  0  0  0  0  0  0
  -10.2190   -1.3151  -23.5604 C   0  0  0  0  0  0  0  0  0  0  0  0
  -10.7943   -1.1380  -21.4781 H   0  0  0  0  0  0  0  0  0  0  0  0
  -13.9829   -0.5503  -24.2685 H   0  0  0  0  0  0  0  0  0  0  0  0
  -12.3910   -1.0093  -26.1593 H   0  0  0  0  0  0  0  0  0  0  0  0
   -7.6668   -0.2864  -24.5635 H   0  0  0  0  0  0  0  0  0  0  0  0
   -6.9476   -1.8928  -24.3953 H   0  0  0  0  0  0  0  0  0  0  0  0
   -6.4279   -3.0382  -22.0128 H   0  0  0  0  0  0  0  0  0  0  0  0
   -7.5052   -3.3799  -20.6508 H   0  0  0  0  0  0  0  0  0  0  0  0
   -9.4622   -3.1565  -21.9476 H   0  0  0  0  0  0  0  0  0  0  0  0
   -9.2270   -4.3855  -24.0407 H   0  0  0  0  0  0  0  0  0  0  0  0
   -8.1263   -5.0766  -22.8380 H   0  0  0  0  0  0  0  0  0  0  0  0
   -7.4941   -4.0512  -24.1267 H   0  0  0  0  0  0  0  0  0  0  0  0
  1  2  1  0
  2  3  1  0
  3  4  1  0
  4  5  1  0
  5  6  2  0
  6  7  1  0
  7  8  2  0
  8  9  1  0
  9 10  2  0
 10 11  1  0
 11 12  2  0
 12 13  1  0
 13 14  2  0
 13 15  1  0
 12 16  1  0
 11 17  1  0
 10 18  1  0
  8 19  1  0
  6 20  1  0
  4 21  1  0
 21 22  2  0
 21 23  1  0
 23 24  1  6
 24 25  1  0
 25 26  1  0
 26 27  1  0
 27 28  2  0
 27 29  1  0
 29 30  1  0
 30 31  1  0
 31 32  1  0
 31 33  1  0
 33 34  1  0
 34 35  1  0
 34 36  1  0
 33 37  1  0
 33 38  1  0
 30 39  1  0
 30 40  1  0
 29 41  1  0
 26 42  1  0
 26 43  1  0
 25 44  1  0
 44 45  2  0
 44 46  1  0
 46 47  2  0
 47 48  1  0
 48 49  2  0
 49 50  1  0
 49 51  1  0
 51 52  2  0
 51 53  1  0
 48 54  1  0
 47 55  1  0
 24 56  1  0
 24 57  1  0
  3 58  1  0
  3 59  1  0
  2 60  1  1
  1 61  1  0
  1 62  1  0
  1 63  1  0
 23  2  1  0
 34 31  1  0
 52 46  1  0
 14  5  1  0
 52 23  1  0
 14  9  1  0
M  END
>  <cnnaffinities>  (82) 
[6.35519]

>  <score>  (82) 
6.35519

>  <index>  (82) 
84

>  <Smiles>  (82) 
C([C@]1(C(N(c2c(nc(c3c(c(c(c(c23)[H])[H])[H])[H])[H])[H])C(=O)[C@]21C(N(C(C(=O)N(C(C1(F)C(C1([H])[H])([H])[H])([H])[H])[H])([H])[H])C(=O)c1c(c(c(F)c(c21)[H])[H])[H])([H])[H])([H])[H])[H])([H])([H])[H]

>  <h>  (82) 
<NA>

>  <Training>  (82) 
True

>  <Success>  (82) 
True

>  <enamine_searched>  (82) 
False

>  <enamine_id>  (82) 
nan

$$$$

     RDKit          3D

 57 62  0  0  0  0  0  0  0  0999 V2000
   -9.2821    1.0438  -29.3097 C   0  0  0  0  0  0  0  0  0  0  0  0
   -9.1700    1.3765  -27.9041 N   0  0  0  0  0  0  0  0  0  0  0  0
   -8.2844    0.6983  -27.1307 C   0  0  0  0  0  0  0  0  0  0  0  0
   -7.5262   -0.1541  -27.5687 O   0  0  0  0  0  0  0  0  0  0  0  0
   -8.3044    1.0830  -25.6488 C   0  0  0  0  0  0  0  0  0  0  0  0
   -9.1438    0.2037  -24.8632 N   0  0  0  0  0  0  0  0  0  0  0  0
   -8.6526   -1.1191  -24.5142 C   0  0  0  0  0  0  0  0  0  0  0  0
   -8.9549   -1.4863  -23.0443 C   0  0  2  0  0  0  0  0  0  0  0  0
   -8.1545   -0.5849  -22.0799 C   0  0  0  0  0  0  0  0  0  0  0  0
   -8.1454    0.6258  -22.0635 O   0  0  0  0  0  0  0  0  0  0  0  0
   -7.4157   -1.3698  -21.2151 N   0  0  0  0  0  0  0  0  0  0  0  0
   -6.6011   -0.8220  -20.1933 C   0  0  0  0  0  0  0  0  0  0  0  0
   -6.9010   -1.0651  -18.8753 C   0  0  0  0  0  0  0  0  0  0  0  0
   -6.2203   -0.5557  -17.8188 N   0  0  0  0  0  0  0  0  0  0  0  0
   -5.1866    0.2079  -18.0847 C   0  0  0  0  0  0  0  0  0  0  0  0
   -4.7395    0.5119  -19.4018 C   0  0  0  0  0  0  0  0  0  0  0  0
   -3.6080    1.3412  -19.6266 C   0  0  0  0  0  0  0  0  0  0  0  0
   -3.1870    1.6131  -20.8992 C   0  0  0  0  0  0  0  0  0  0  0  0
   -3.8714    1.0608  -22.0040 C   0  0  0  0  0  0  0  0  0  0  0  0
   -4.9657    0.2547  -21.8121 C   0  0  0  0  0  0  0  0  0  0  0  0
   -5.4476   -0.0236  -20.4996 C   0  0  0  0  0  0  0  0  0  0  0  0
   -5.4851   -0.1596  -22.6693 H   0  0  0  0  0  0  0  0  0  0  0  0
   -3.5340    1.2866  -23.0117 H   0  0  0  0  0  0  0  0  0  0  0  0
   -2.3296    2.2586  -21.0690 H   0  0  0  0  0  0  0  0  0  0  0  0
   -3.0985    1.7636  -18.7649 H   0  0  0  0  0  0  0  0  0  0  0  0
   -4.6366    0.6189  -17.2374 H   0  0  0  0  0  0  0  0  0  0  0  0
   -7.7630   -1.6811  -18.6226 H   0  0  0  0  0  0  0  0  0  0  0  0
   -7.6349   -2.7878  -21.3726 C   0  0  0  0  0  0  0  0  0  0  0  0
   -8.4788   -2.8969  -22.6385 C   0  0  0  0  0  0  0  0  0  0  0  0
   -9.3485   -4.1063  -22.8227 C   0  0  0  0  0  0  0  0  0  0  0  0
   -8.0986   -3.9564  -23.6403 C   0  0  0  0  0  0  0  0  0  0  0  0
   -7.2458   -4.5921  -23.4066 H   0  0  0  0  0  0  0  0  0  0  0  0
   -8.1952   -3.7217  -24.6966 H   0  0  0  0  0  0  0  0  0  0  0  0
   -9.3835   -4.8549  -22.0309 H   0  0  0  0  0  0  0  0  0  0  0  0
  -10.2999   -3.9615  -23.3258 H   0  0  0  0  0  0  0  0  0  0  0  0
   -6.6776   -3.3107  -21.4697 H   0  0  0  0  0  0  0  0  0  0  0  0
   -8.1566   -3.2153  -20.5071 H   0  0  0  0  0  0  0  0  0  0  0  0
  -10.4475   -1.2301  -22.8796 C   0  0  0  0  0  0  0  0  0  0  0  0
  -11.1577   -1.9445  -21.9270 C   0  0  0  0  0  0  0  0  0  0  0  0
  -12.5207   -1.7732  -21.8061 C   0  0  0  0  0  0  0  0  0  0  0  0
  -13.2609   -2.7810  -20.5894 Cl  0  0  0  0  0  0  0  0  0  0  0  0
  -13.2055   -0.7550  -22.4680 C   0  0  0  0  0  0  0  0  0  0  0  0
  -12.4821    0.0224  -23.3577 C   0  0  0  0  0  0  0  0  0  0  0  0
  -11.1407   -0.2509  -23.6093 C   0  0  0  0  0  0  0  0  0  0  0  0
  -10.4403    0.5652  -24.6428 C   0  0  0  0  0  0  0  0  0  0  0  0
  -10.9624    1.5051  -25.2370 O   0  0  0  0  0  0  0  0  0  0  0  0
  -12.9247    0.8655  -23.8752 H   0  0  0  0  0  0  0  0  0  0  0  0
  -14.2581   -0.5749  -22.2707 H   0  0  0  0  0  0  0  0  0  0  0  0
  -10.6745   -2.6696  -21.2815 H   0  0  0  0  0  0  0  0  0  0  0  0
   -7.5800   -1.1474  -24.7091 H   0  0  0  0  0  0  0  0  0  0  0  0
   -9.1378   -1.8663  -25.1552 H   0  0  0  0  0  0  0  0  0  0  0  0
   -8.6765    2.1024  -25.5116 H   0  0  0  0  0  0  0  0  0  0  0  0
   -7.2802    1.0052  -25.2655 H   0  0  0  0  0  0  0  0  0  0  0  0
   -9.8976    1.9146  -27.4525 H   0  0  0  0  0  0  0  0  0  0  0  0
   -9.5323   -0.0139  -29.4454 H   0  0  0  0  0  0  0  0  0  0  0  0
  -10.0548    1.6603  -29.7728 H   0  0  0  0  0  0  0  0  0  0  0  0
   -8.3317    1.2275  -29.8196 H   0  0  0  0  0  0  0  0  0  0  0  0
  1  2  1  0
  2  3  1  0
  3  4  2  0
  3  5  1  0
  5  6  1  0
  6  7  1  0
  8  7  1  6
  8  9  1  0
  9 10  2  0
  9 11  1  0
 11 12  1  0
 12 13  2  0
 13 14  1  0
 14 15  2  0
 15 16  1  0
 16 17  2  0
 17 18  1  0
 18 19  2  0
 19 20  1  0
 20 21  2  0
 20 22  1  0
 19 23  1  0
 18 24  1  0
 17 25  1  0
 15 26  1  0
 13 27  1  0
 11 28  1  0
 28 29  1  0
 29 30  1  0
 30 31  1  0
 31 32  1  0
 31 33  1  0
 30 34  1  0
 30 35  1  0
 28 36  1  0
 28 37  1  0
  8 38  1  0
 38 39  2  0
 39 40  1  0
 40 41  1  0
 40 42  2  0
 42 43  1  0
 43 44  2  0
 44 45  1  0
 45 46  2  0
 43 47  1  0
 42 48  1  0
 39 49  1  0
  7 50  1  0
  7 51  1  0
  5 52  1  0
  5 53  1  0
  2 54  1  0
  1 55  1  0
  1 56  1  0
  1 57  1  0
 45  6  1  0
 29  8  1  0
 44 38  1  0
 21 12  1  0
 31 29  1  0
 21 16  1  0
M  END
>  <cnnaffinities>  (83) 
[5.74006]

>  <score>  (83) 
5.74006

>  <index>  (83) 
85

>  <Smiles>  (83) 
C(N(C(=O)C(N1C([C@@]2(C(=O)N(c3c(nc(c4c(c(c(c(c34)[H])[H])[H])[H])[H])[H])C(C32C(C3([H])[H])([H])[H])([H])[H])c2c(c(Cl)c(c(c2C1=O)[H])[H])[H])([H])[H])([H])[H])[H])([H])([H])[H]

>  <h>  (83) 
<NA>

>  <Training>  (83) 
True

>  <Success>  (83) 
True

>  <enamine_searched>  (83) 
False

>  <enamine_id>  (83) 
nan

$$$$

     RDKit          3D

 43 45  0  0  0  0  0  0  0  0999 V2000
   -8.5464   -5.5626  -25.7829 C   0  0  0  0  0  0  0  0  0  0  0  0
   -9.0612   -5.4477  -24.3457 C   0  0  1  0  0  0  0  0  0  0  0  0
   -8.0256   -5.8773  -23.3094 C   0  0  0  0  0  0  0  0  0  0  0  0
   -6.9359   -4.8329  -23.0939 C   0  0  0  0  0  0  0  0  0  0  0  0
   -7.5097   -3.5401  -22.7128 N   0  0  0  0  0  0  0  0  0  0  0  0
   -6.7549   -2.7451  -21.8636 C   0  0  0  0  0  0  0  0  0  0  0  0
   -5.6175   -3.0512  -21.5525 O   0  0  0  0  0  0  0  0  0  0  0  0
   -7.4131   -1.4743  -21.2690 C   0  0  0  0  0  0  0  0  0  0  0  0
   -6.5792   -0.8307  -20.1833 C   0  0  0  0  0  0  0  0  0  0  0  0
   -6.8741   -1.0455  -18.8631 C   0  0  0  0  0  0  0  0  0  0  0  0
   -6.1925   -0.5397  -17.7989 N   0  0  0  0  0  0  0  0  0  0  0  0
   -5.1591    0.2223  -18.0665 C   0  0  0  0  0  0  0  0  0  0  0  0
   -4.7211    0.5286  -19.3816 C   0  0  0  0  0  0  0  0  0  0  0  0
   -3.5925    1.3546  -19.6226 C   0  0  0  0  0  0  0  0  0  0  0  0
   -3.1902    1.6319  -20.9011 C   0  0  0  0  0  0  0  0  0  0  0  0
   -3.9012    1.0886  -21.9940 C   0  0  0  0  0  0  0  0  0  0  0  0
   -4.9975    0.2872  -21.7865 C   0  0  0  0  0  0  0  0  0  0  0  0
   -5.4443   -0.0138  -20.4742 C   0  0  0  0  0  0  0  0  0  0  0  0
   -5.5287   -0.1297  -22.6355 H   0  0  0  0  0  0  0  0  0  0  0  0
   -3.5776    1.3141  -23.0057 H   0  0  0  0  0  0  0  0  0  0  0  0
   -2.3300    2.2716  -21.0850 H   0  0  0  0  0  0  0  0  0  0  0  0
   -3.0609    1.7736  -18.7707 H   0  0  0  0  0  0  0  0  0  0  0  0
   -4.6045    0.6280  -17.2171 H   0  0  0  0  0  0  0  0  0  0  0  0
   -7.7211   -1.6703  -18.5861 H   0  0  0  0  0  0  0  0  0  0  0  0
   -7.6218   -0.7476  -22.0672 H   0  0  0  0  0  0  0  0  0  0  0  0
   -8.3933   -1.7507  -20.8538 H   0  0  0  0  0  0  0  0  0  0  0  0
   -8.5360   -2.9963  -23.6099 C   0  0  1  0  0  0  0  0  0  0  0  0
   -7.9410   -2.2908  -24.8398 C   0  0  0  0  0  0  0  0  0  0  0  0
   -8.7286   -1.9764  -25.5348 H   0  0  0  0  0  0  0  0  0  0  0  0
   -7.2483   -2.9315  -25.3932 H   0  0  0  0  0  0  0  0  0  0  0  0
   -7.3906   -1.3889  -24.5492 H   0  0  0  0  0  0  0  0  0  0  0  0
   -9.5848   -4.0631  -23.9606 C   0  0  0  0  0  0  0  0  0  0  0  0
  -10.1952   -3.6633  -24.7727 H   0  0  0  0  0  0  0  0  0  0  0  0
  -10.2614   -4.1733  -23.1060 H   0  0  0  0  0  0  0  0  0  0  0  0
   -9.0794   -2.2364  -23.0430 H   0  0  0  0  0  0  0  0  0  0  0  0
   -6.2990   -4.7562  -23.9884 H   0  0  0  0  0  0  0  0  0  0  0  0
   -6.2731   -5.1464  -22.2898 H   0  0  0  0  0  0  0  0  0  0  0  0
   -7.5747   -6.8285  -23.6116 H   0  0  0  0  0  0  0  0  0  0  0  0
   -8.5201   -6.0608  -22.3512 H   0  0  0  0  0  0  0  0  0  0  0  0
   -9.9136   -6.1368  -24.2792 H   0  0  0  0  0  0  0  0  0  0  0  0
   -7.5994   -5.0393  -25.9397 H   0  0  0  0  0  0  0  0  0  0  0  0
   -8.3806   -6.6139  -26.0489 H   0  0  0  0  0  0  0  0  0  0  0  0
   -9.2678   -5.1522  -26.4973 H   0  0  0  0  0  0  0  0  0  0  0  0
  1  2  1  0
  2  3  1  0
  3  4  1  0
  4  5  1  0
  5  6  1  0
  6  7  2  0
  6  8  1  0
  8  9  1  0
  9 10  2  0
 10 11  1  0
 11 12  2  0
 12 13  1  0
 13 14  2  0
 14 15  1  0
 15 16  2  0
 16 17  1  0
 17 18  2  0
 17 19  1  0
 16 20  1  0
 15 21  1  0
 14 22  1  0
 12 23  1  0
 10 24  1  0
  8 25  1  0
  8 26  1  0
  5 27  1  0
 27 28  1  0
 28 29  1  0
 28 30  1  0
 28 31  1  0
 27 32  1  0
 32 33  1  0
 32 34  1  0
 27 35  1  1
  4 36  1  0
  4 37  1  0
  3 38  1  0
  3 39  1  0
  2 40  1  6
  1 41  1  0
  1 42  1  0
  1 43  1  0
 32  2  1  0
 18  9  1  0
 18 13  1  0
M  END
>  <cnnaffinities>  (84) 
[4.83809]

>  <score>  (84) 
4.83809

>  <index>  (84) 
86

>  <Smiles>  (84) 
C([C@]1(C(C(N(C(=O)C(c2c(nc(c3c(c(c(c(c23)[H])[H])[H])[H])[H])[H])([H])[H])[C@@](C([H])([H])[H])(C1([H])[H])[H])([H])[H])([H])[H])[H])([H])([H])[H]

>  <h>  (84) 
<NA>

>  <Training>  (84) 
True

>  <Success>  (84) 
True

>  <enamine_searched>  (84) 
False

>  <enamine_id>  (84) 
nan

$$$$

     RDKit          3D

 59 64  0  0  0  0  0  0  0  0999 V2000
   -8.0952   -4.0880  -23.6317 C   0  0  0  0  0  0  0  0  0  0  0  0
   -8.4160   -2.9693  -22.6349 C   0  0  1  0  0  0  0  0  0  0  0  0
   -7.3333   -2.7941  -21.5558 C   0  0  0  0  0  0  0  0  0  0  0  0
   -7.4125   -1.3866  -21.2016 N   0  0  0  0  0  0  0  0  0  0  0  0
   -6.6106   -0.8019  -20.1835 C   0  0  0  0  0  0  0  0  0  0  0  0
   -6.8991   -1.0521  -18.8680 C   0  0  0  0  0  0  0  0  0  0  0  0
   -6.2043   -0.5519  -17.8158 N   0  0  0  0  0  0  0  0  0  0  0  0
   -5.1724    0.2115  -18.0847 C   0  0  0  0  0  0  0  0  0  0  0  0
   -4.7341    0.5270  -19.4006 C   0  0  0  0  0  0  0  0  0  0  0  0
   -3.5965    1.3473  -19.6377 C   0  0  0  0  0  0  0  0  0  0  0  0
   -3.1842    1.6149  -20.9127 C   0  0  0  0  0  0  0  0  0  0  0  0
   -3.8845    1.0639  -22.0108 C   0  0  0  0  0  0  0  0  0  0  0  0
   -4.9841    0.2715  -21.8076 C   0  0  0  0  0  0  0  0  0  0  0  0
   -5.4601   -0.0014  -20.4933 C   0  0  0  0  0  0  0  0  0  0  0  0
   -5.5162   -0.1453  -22.6584 H   0  0  0  0  0  0  0  0  0  0  0  0
   -3.5611    1.2852  -23.0246 H   0  0  0  0  0  0  0  0  0  0  0  0
   -2.3253    2.2595  -21.0875 H   0  0  0  0  0  0  0  0  0  0  0  0
   -3.0781    1.7664  -18.7777 H   0  0  0  0  0  0  0  0  0  0  0  0
   -4.6264    0.6170  -17.2320 H   0  0  0  0  0  0  0  0  0  0  0  0
   -7.7445   -1.6877  -18.6084 H   0  0  0  0  0  0  0  0  0  0  0  0
   -8.1225   -0.6209  -22.1029 C   0  0  0  0  0  0  0  0  0  0  0  0
   -8.2546    0.5800  -22.0116 O   0  0  0  0  0  0  0  0  0  0  0  0
   -8.6440   -1.5350  -23.2315 C   0  0  1  0  0  0  0  0  0  0  0  0
   -7.8127   -1.2225  -24.4939 C   0  0  0  0  0  0  0  0  0  0  0  0
   -8.3525   -1.8657  -25.6768 N   0  0  0  0  0  0  0  0  0  0  0  0
   -7.4207   -2.2570  -26.7273 C   0  0  0  0  0  0  0  0  0  0  0  0
   -7.0368   -1.1355  -27.6434 C   0  0  0  0  0  0  0  0  0  0  0  0
   -7.6978   -0.6833  -28.7642 C   0  0  0  0  0  0  0  0  0  0  0  0
   -6.9607    0.4370  -29.1894 C   0  0  0  0  0  0  0  0  0  0  0  0
   -5.9141    0.6518  -28.4035 N   0  0  0  0  0  0  0  0  0  0  0  0
   -5.9638   -0.3188  -27.4772 N   0  0  0  0  0  0  0  0  0  0  0  0
   -4.9606   -0.3372  -26.4304 C   0  0  0  0  0  0  0  0  0  0  0  0
   -4.1116    0.2466  -26.7957 H   0  0  0  0  0  0  0  0  0  0  0  0
   -5.3456    0.1230  -25.5100 H   0  0  0  0  0  0  0  0  0  0  0  0
   -4.6480   -1.3672  -26.2311 H   0  0  0  0  0  0  0  0  0  0  0  0
   -7.1488    1.1196  -30.0134 H   0  0  0  0  0  0  0  0  0  0  0  0
   -8.6084   -1.1172  -29.1551 H   0  0  0  0  0  0  0  0  0  0  0  0
   -6.5361   -2.7020  -26.2541 H   0  0  0  0  0  0  0  0  0  0  0  0
   -7.9222   -3.0262  -27.3171 H   0  0  0  0  0  0  0  0  0  0  0  0
   -9.6818   -1.7774  -25.9971 C   0  0  0  0  0  0  0  0  0  0  0  0
  -10.1037   -2.0325  -27.1176 O   0  0  0  0  0  0  0  0  0  0  0  0
  -10.5876   -1.3795  -24.8708 C   0  0  0  0  0  0  0  0  0  0  0  0
  -11.9458   -1.1839  -25.1312 C   0  0  0  0  0  0  0  0  0  0  0  0
  -12.8337   -0.9250  -24.1051 C   0  0  0  0  0  0  0  0  0  0  0  0
  -12.3387   -0.8482  -22.8113 C   0  0  0  0  0  0  0  0  0  0  0  0
  -13.2059   -0.5952  -21.8219 F   0  0  0  0  0  0  0  0  0  0  0  0
  -11.0017   -1.0255  -22.5206 C   0  0  0  0  0  0  0  0  0  0  0  0
  -10.1008   -1.2769  -23.5606 C   0  0  0  0  0  0  0  0  0  0  0  0
  -10.6637   -0.9562  -21.4943 H   0  0  0  0  0  0  0  0  0  0  0  0
  -13.9012   -0.8118  -24.2577 H   0  0  0  0  0  0  0  0  0  0  0  0
  -12.2961   -1.3056  -26.1516 H   0  0  0  0  0  0  0  0  0  0  0  0
   -7.8085   -0.1277  -24.6116 H   0  0  0  0  0  0  0  0  0  0  0  0
   -6.7801   -1.5716  -24.3534 H   0  0  0  0  0  0  0  0  0  0  0  0
   -7.5163   -3.4226  -20.6778 H   0  0  0  0  0  0  0  0  0  0  0  0
   -6.3354   -3.0543  -21.9437 H   0  0  0  0  0  0  0  0  0  0  0  0
   -9.3594   -3.2165  -22.1260 H   0  0  0  0  0  0  0  0  0  0  0  0
   -8.8710   -4.1627  -24.3997 H   0  0  0  0  0  0  0  0  0  0  0  0
   -7.1414   -3.9065  -24.1433 H   0  0  0  0  0  0  0  0  0  0  0  0
   -8.0173   -5.0557  -23.1233 H   0  0  0  0  0  0  0  0  0  0  0  0
  1  2  1  0
  2  3  1  0
  3  4  1  0
  4  5  1  0
  5  6  2  0
  6  7  1  0
  7  8  2  0
  8  9  1  0
  9 10  2  0
 10 11  1  0
 11 12  2  0
 12 13  1  0
 13 14  2  0
 13 15  1  0
 12 16  1  0
 11 17  1  0
 10 18  1  0
  8 19  1  0
  6 20  1  0
  4 21  1  0
 21 22  2  0
 21 23  1  0
 23 24  1  6
 24 25  1  0
 25 26  1  0
 26 27  1  0
 27 28  2  0
 28 29  1  0
 29 30  2  0
 30 31  1  0
 31 32  1  0
 32 33  1  0
 32 34  1  0
 32 35  1  0
 29 36  1  0
 28 37  1  0
 26 38  1  0
 26 39  1  0
 25 40  1  0
 40 41  2  0
 40 42  1  0
 42 43  2  0
 43 44  1  0
 44 45  2  0
 45 46  1  0
 45 47  1  0
 47 48  2  0
 47 49  1  0
 44 50  1  0
 43 51  1  0
 24 52  1  0
 24 53  1  0
  3 54  1  0
  3 55  1  0
  2 56  1  1
  1 57  1  0
  1 58  1  0
  1 59  1  0
 23  2  1  0
 31 27  1  0
 48 42  1  0
 14  5  1  0
 48 23  1  0
 14  9  1  0
M  END
>  <cnnaffinities>  (85) 
[6.21528, 6.22437, 6.14275, 6.08758]

>  <score>  (85) 
6.21528

>  <index>  (85) 
87

>  <Smiles>  (85) 
C([C@]1(C(N(c2c(nc(c3c(c(c(c(c23)[H])[H])[H])[H])[H])[H])C(=O)[C@]21C(N(C(c1c(c(nn1C([H])([H])[H])[H])[H])([H])[H])C(=O)c1c(c(c(F)c(c21)[H])[H])[H])([H])[H])([H])[H])[H])([H])([H])[H]

>  <h>  (85) 
<NA>

>  <Training>  (85) 
True

>  <Success>  (85) 
True

>  <enamine_searched>  (85) 
False

>  <enamine_id>  (85) 
nan

$$$$

     RDKit          3D

 40 42  0  0  0  0  0  0  0  0999 V2000
   -5.5829   -3.0078  -21.6306 O   0  0  0  0  0  0  0  0  0  0  0  0
   -6.7748   -2.7894  -21.7894 C   0  0  0  0  0  0  0  0  0  0  0  0
   -7.4102   -1.4846  -21.2636 C   0  0  0  0  0  0  0  0  0  0  0  0
   -6.5816   -0.8300  -20.1818 C   0  0  0  0  0  0  0  0  0  0  0  0
   -6.8809   -1.0455  -18.8608 C   0  0  0  0  0  0  0  0  0  0  0  0
   -6.1975   -0.5371  -17.7995 N   0  0  0  0  0  0  0  0  0  0  0  0
   -5.1623    0.2186  -18.0705 C   0  0  0  0  0  0  0  0  0  0  0  0
   -4.7218    0.5244  -19.3847 C   0  0  0  0  0  0  0  0  0  0  0  0
   -3.5948    1.3500  -19.6223 C   0  0  0  0  0  0  0  0  0  0  0  0
   -3.1914    1.6263  -20.9003 C   0  0  0  0  0  0  0  0  0  0  0  0
   -3.9013    1.0822  -21.9950 C   0  0  0  0  0  0  0  0  0  0  0  0
   -4.9955    0.2788  -21.7902 C   0  0  0  0  0  0  0  0  0  0  0  0
   -5.4443   -0.0179  -20.4760 C   0  0  0  0  0  0  0  0  0  0  0  0
   -5.5252   -0.1481  -22.6363 H   0  0  0  0  0  0  0  0  0  0  0  0
   -3.5791    1.3140  -23.0062 H   0  0  0  0  0  0  0  0  0  0  0  0
   -2.3345    2.2696  -21.0767 H   0  0  0  0  0  0  0  0  0  0  0  0
   -3.0772    1.7685  -18.7619 H   0  0  0  0  0  0  0  0  0  0  0  0
   -4.6139    0.6279  -17.2185 H   0  0  0  0  0  0  0  0  0  0  0  0
   -7.7286   -1.6699  -18.5817 H   0  0  0  0  0  0  0  0  0  0  0  0
   -8.4096   -1.7096  -20.8640 H   0  0  0  0  0  0  0  0  0  0  0  0
   -7.5645   -0.8013  -22.1103 H   0  0  0  0  0  0  0  0  0  0  0  0
   -7.5895   -3.7062  -22.4194 N   0  0  0  0  0  0  0  0  0  0  0  0
   -7.2964   -5.1174  -22.2142 C   0  0  0  0  0  0  0  0  0  0  0  0
   -7.5128   -5.9624  -23.4615 C   0  0  0  0  0  0  0  0  0  0  0  0
   -8.9617   -5.7736  -23.8951 C   0  0  0  0  0  0  0  0  0  0  0  0
   -9.3214   -6.6021  -25.1068 C   0  0  0  0  0  0  0  0  0  0  0  0
   -8.5033   -6.2730  -26.1514 F   0  0  0  0  0  0  0  0  0  0  0  0
   -9.1378   -7.9266  -24.8354 F   0  0  0  0  0  0  0  0  0  0  0  0
  -10.3612   -6.4751  -25.4340 H   0  0  0  0  0  0  0  0  0  0  0  0
   -9.2655   -4.2904  -24.0907 C   0  0  0  0  0  0  0  0  0  0  0  0
   -8.9641   -3.4749  -22.8278 C   0  0  0  0  0  0  0  0  0  0  0  0
   -9.6768   -3.7741  -22.0292 H   0  0  0  0  0  0  0  0  0  0  0  0
   -9.0991   -2.4077  -23.0164 H   0  0  0  0  0  0  0  0  0  0  0  0
   -8.6635   -3.9156  -24.9272 H   0  0  0  0  0  0  0  0  0  0  0  0
  -10.3259   -4.1644  -24.3294 H   0  0  0  0  0  0  0  0  0  0  0  0
   -9.5864   -6.1427  -23.0847 H   0  0  0  0  0  0  0  0  0  0  0  0
   -6.8217   -5.7023  -24.2749 H   0  0  0  0  0  0  0  0  0  0  0  0
   -7.3464   -7.0138  -23.1991 H   0  0  0  0  0  0  0  0  0  0  0  0
   -6.2761   -5.1751  -21.8416 H   0  0  0  0  0  0  0  0  0  0  0  0
   -8.0089   -5.4825  -21.4503 H   0  0  0  0  0  0  0  0  0  0  0  0
  1  2  2  0
  2  3  1  0
  3  4  1  0
  4  5  2  0
  5  6  1  0
  6  7  2  0
  7  8  1  0
  8  9  2  0
  9 10  1  0
 10 11  2  0
 11 12  1  0
 12 13  2  0
 12 14  1  0
 11 15  1  0
 10 16  1  0
  9 17  1  0
  7 18  1  0
  5 19  1  0
  3 20  1  0
  3 21  1  0
  2 22  1  0
 22 23  1  0
 23 24  1  0
 24 25  1  0
 25 26  1  0
 26 27  1  0
 26 28  1  0
 26 29  1  0
 25 30  1  0
 30 31  1  0
 31 32  1  0
 31 33  1  0
 30 34  1  0
 30 35  1  0
 25 36  1  0
 24 37  1  0
 24 38  1  0
 23 39  1  0
 23 40  1  0
 13  4  1  0
 31 22  1  0
 13  8  1  0
M  END
>  <cnnaffinities>  (86) 
[4.81796, 4.80579, 4.80575, 4.80427, 4.78877, 4.54452, 4.88501, 4.86916, 4.90775, 4.90778, 4.9078]

>  <score>  (86) 
4.81796

>  <index>  (86) 
88

>  <Smiles>  (86) 
O=C(C(c1c(nc(c2c(c(c(c(c12)[H])[H])[H])[H])[H])[H])([H])[H])N1C(C(C(C(F)(F)[H])(C(C1([H])[H])([H])[H])[H])([H])[H])([H])[H]

>  <h>  (86) 
<NA>

>  <Training>  (86) 
True

>  <Success>  (86) 
True

>  <enamine_searched>  (86) 
False

>  <enamine_id>  (86) 
nan

$$$$

     RDKit          3D

 43 45  0  0  0  0  0  0  0  0999 V2000
   -9.8348    0.6074  -27.2160 C   0  0  0  0  0  0  0  0  0  0  0  0
   -8.8042    0.4572  -26.0908 C   0  0  0  0  0  0  0  0  0  0  0  0
   -7.4084    0.6988  -26.6804 C   0  0  0  0  0  0  0  0  0  0  0  0
   -6.6082    0.6042  -25.9419 H   0  0  0  0  0  0  0  0  0  0  0  0
   -7.3375    1.7034  -27.1111 H   0  0  0  0  0  0  0  0  0  0  0  0
   -7.1977   -0.0182  -27.4814 H   0  0  0  0  0  0  0  0  0  0  0  0
   -9.1182    1.4692  -24.9813 C   0  0  0  0  0  0  0  0  0  0  0  0
   -8.2847    1.2662  -23.7223 C   0  0  0  0  0  0  0  0  0  0  0  0
   -8.3470   -0.1115  -23.2422 N   0  0  0  0  0  0  0  0  0  0  0  0
   -8.3589   -0.3275  -21.8682 C   0  0  0  0  0  0  0  0  0  0  0  0
   -9.0496    0.3351  -21.1198 O   0  0  0  0  0  0  0  0  0  0  0  0
   -7.4329   -1.4132  -21.2771 C   0  0  0  0  0  0  0  0  0  0  0  0
   -6.5700   -0.8338  -20.1746 C   0  0  0  0  0  0  0  0  0  0  0  0
   -6.8771   -1.0397  -18.8549 C   0  0  0  0  0  0  0  0  0  0  0  0
   -6.1940   -0.5319  -17.7920 N   0  0  0  0  0  0  0  0  0  0  0  0
   -5.1565    0.2230  -18.0637 C   0  0  0  0  0  0  0  0  0  0  0  0
   -4.7203    0.5325  -19.3804 C   0  0  0  0  0  0  0  0  0  0  0  0
   -3.5975    1.3652  -19.6222 C   0  0  0  0  0  0  0  0  0  0  0  0
   -3.2083    1.6580  -20.9010 C   0  0  0  0  0  0  0  0  0  0  0  0
   -3.9285    1.1256  -21.9946 C   0  0  0  0  0  0  0  0  0  0  0  0
   -5.0186    0.3158  -21.7882 C   0  0  0  0  0  0  0  0  0  0  0  0
   -5.4461   -0.0043  -20.4714 C   0  0  0  0  0  0  0  0  0  0  0  0
   -5.5606   -0.0801  -22.6438 H   0  0  0  0  0  0  0  0  0  0  0  0
   -3.6152    1.3668  -23.0057 H   0  0  0  0  0  0  0  0  0  0  0  0
   -2.3542    2.3051  -21.0851 H   0  0  0  0  0  0  0  0  0  0  0  0
   -3.0632    1.7794  -18.7704 H   0  0  0  0  0  0  0  0  0  0  0  0
   -4.6015    0.6287  -17.2157 H   0  0  0  0  0  0  0  0  0  0  0  0
   -7.7296   -1.6604  -18.5833 H   0  0  0  0  0  0  0  0  0  0  0  0
   -6.8124   -1.8923  -22.0446 H   0  0  0  0  0  0  0  0  0  0  0  0
   -8.0809   -2.1864  -20.8462 H   0  0  0  0  0  0  0  0  0  0  0  0
   -8.0638   -1.1433  -24.2246 C   0  0  0  0  0  0  0  0  0  0  0  0
   -8.9072   -0.9491  -25.4893 C   0  0  0  0  0  0  0  0  0  0  0  0
   -9.9565   -1.1585  -25.2520 H   0  0  0  0  0  0  0  0  0  0  0  0
   -8.6126   -1.6892  -26.2400 H   0  0  0  0  0  0  0  0  0  0  0  0
   -6.9943   -1.1823  -24.4910 H   0  0  0  0  0  0  0  0  0  0  0  0
   -8.3138   -2.1072  -23.7812 H   0  0  0  0  0  0  0  0  0  0  0  0
   -8.6504    1.9021  -22.9166 H   0  0  0  0  0  0  0  0  0  0  0  0
   -7.2389    1.5660  -23.9110 H   0  0  0  0  0  0  0  0  0  0  0  0
  -10.1790    1.3945  -24.7167 H   0  0  0  0  0  0  0  0  0  0  0  0
   -8.9693    2.4857  -25.3637 H   0  0  0  0  0  0  0  0  0  0  0  0
   -9.7955    1.6104  -27.6568 H   0  0  0  0  0  0  0  0  0  0  0  0
  -10.8548    0.4454  -26.8498 H   0  0  0  0  0  0  0  0  0  0  0  0
   -9.6525   -0.1153  -28.0199 H   0  0  0  0  0  0  0  0  0  0  0  0
  1  2  1  0
  2  3  1  0
  3  4  1  0
  3  5  1  0
  3  6  1  0
  2  7  1  0
  7  8  1  0
  8  9  1  0
  9 10  1  0
 10 11  2  0
 10 12  1  0
 12 13  1  0
 13 14  2  0
 14 15  1  0
 15 16  2  0
 16 17  1  0
 17 18  2  0
 18 19  1  0
 19 20  2  0
 20 21  1  0
 21 22  2  0
 21 23  1  0
 20 24  1  0
 19 25  1  0
 18 26  1  0
 16 27  1  0
 14 28  1  0
 12 29  1  0
 12 30  1  0
  9 31  1  0
 31 32  1  0
 32 33  1  0
 32 34  1  0
 31 35  1  0
 31 36  1  0
  8 37  1  0
  8 38  1  0
  7 39  1  0
  7 40  1  0
  1 41  1  0
  1 42  1  0
  1 43  1  0
 32  2  1  0
 22 13  1  0
 22 17  1  0
M  END
>  <cnnaffinities>  (87) 
[4.77332, 4.86133, 4.86128, 4.86136, 4.86136, 4.59088, 4.59086, 4.59085]

>  <score>  (87) 
4.77332

>  <index>  (87) 
89

>  <Smiles>  (87) 
C(C1(C([H])([H])[H])C(C(N(C(=O)C(c2c(nc(c3c(c(c(c(c23)[H])[H])[H])[H])[H])[H])([H])[H])C(C1([H])[H])([H])[H])([H])[H])([H])[H])([H])([H])[H]

>  <h>  (87) 
<NA>

>  <Training>  (87) 
True

>  <Success>  (87) 
True

>  <enamine_searched>  (87) 
False

>  <enamine_id>  (87) 
nan

$$$$

     RDKit          3D

 64 68  0  0  0  0  0  0  0  0999 V2000
   -7.4917    3.3388  -21.8602 C   0  0  0  0  0  0  0  0  0  0  0  0
   -8.5172    2.8544  -22.7692 N   0  0  0  0  0  0  0  0  0  0  0  0
   -8.0722    2.1143  -23.8247 C   0  0  0  0  0  0  0  0  0  0  0  0
   -6.8827    1.9179  -24.0228 O   0  0  0  0  0  0  0  0  0  0  0  0
   -9.1077    1.5134  -24.7688 C   0  0  0  0  0  0  0  0  0  0  0  0
   -9.6773    0.3168  -24.1825 N   0  0  0  0  0  0  0  0  0  0  0  0
   -8.8689   -0.8927  -24.0831 C   0  0  0  0  0  0  0  0  0  0  0  0
   -9.1451   -1.6570  -22.7627 C   0  0  2  0  0  0  0  0  0  0  0  0
   -8.5974   -0.8564  -21.5590 C   0  0  0  0  0  0  0  0  0  0  0  0
   -9.1061    0.1051  -21.0226 O   0  0  0  0  0  0  0  0  0  0  0  0
   -7.3914   -1.4103  -21.1895 N   0  0  0  0  0  0  0  0  0  0  0  0
   -6.6036   -0.8269  -20.1711 C   0  0  0  0  0  0  0  0  0  0  0  0
   -6.9269   -1.0418  -18.8541 C   0  0  0  0  0  0  0  0  0  0  0  0
   -6.2328   -0.5435  -17.8033 N   0  0  0  0  0  0  0  0  0  0  0  0
   -5.1892    0.2037  -18.0743 C   0  0  0  0  0  0  0  0  0  0  0  0
   -4.7496    0.5175  -19.3939 C   0  0  0  0  0  0  0  0  0  0  0  0
   -3.6267    1.3530  -19.6331 C   0  0  0  0  0  0  0  0  0  0  0  0
   -3.2434    1.6523  -20.9110 C   0  0  0  0  0  0  0  0  0  0  0  0
   -3.9672    1.1389  -22.0100 C   0  0  0  0  0  0  0  0  0  0  0  0
   -5.0631    0.3338  -21.8069 C   0  0  0  0  0  0  0  0  0  0  0  0
   -5.4767   -0.0074  -20.4887 C   0  0  0  0  0  0  0  0  0  0  0  0
   -5.6332   -0.0132  -22.6637 H   0  0  0  0  0  0  0  0  0  0  0  0
   -3.6596    1.3894  -23.0205 H   0  0  0  0  0  0  0  0  0  0  0  0
   -2.3876    2.2963  -21.0882 H   0  0  0  0  0  0  0  0  0  0  0  0
   -3.0956    1.7583  -18.7749 H   0  0  0  0  0  0  0  0  0  0  0  0
   -4.6258    0.6052  -17.2302 H   0  0  0  0  0  0  0  0  0  0  0  0
   -7.7917   -1.6544  -18.6139 H   0  0  0  0  0  0  0  0  0  0  0  0
   -7.0006   -2.5741  -21.9547 C   0  0  0  0  0  0  0  0  0  0  0  0
   -8.3115   -2.9693  -22.6582 C   0  0  2  0  0  0  0  0  0  0  0  0
   -8.1123   -3.7506  -23.9580 C   0  0  0  0  0  0  0  0  0  0  0  0
   -7.4238   -5.3709  -23.6389 S   0  0  0  0  0  0  0  0  0  0  0  0
   -6.0460   -5.2195  -23.1991 O   0  0  0  0  0  0  0  0  0  0  0  0
   -8.3531   -6.1274  -22.8094 O   0  0  0  0  0  0  0  0  0  0  0  0
   -7.3313   -5.9949  -25.1911 N   0  0  0  0  0  0  0  0  0  0  0  0
   -8.5518   -6.4541  -25.8535 C   0  0  0  0  0  0  0  0  0  0  0  0
   -9.1429   -5.5992  -26.1980 H   0  0  0  0  0  0  0  0  0  0  0  0
   -8.2525   -7.0090  -26.7457 H   0  0  0  0  0  0  0  0  0  0  0  0
   -9.1687   -7.0999  -25.2195 H   0  0  0  0  0  0  0  0  0  0  0  0
   -6.5867   -6.6843  -25.1846 H   0  0  0  0  0  0  0  0  0  0  0  0
   -7.4231   -3.2535  -24.6466 H   0  0  0  0  0  0  0  0  0  0  0  0
   -9.0658   -3.8972  -24.4738 H   0  0  0  0  0  0  0  0  0  0  0  0
   -8.8418   -3.6442  -21.9842 H   0  0  0  0  0  0  0  0  0  0  0  0
   -6.6347   -3.3692  -21.3016 H   0  0  0  0  0  0  0  0  0  0  0  0
   -6.2027   -2.3437  -22.6768 H   0  0  0  0  0  0  0  0  0  0  0  0
  -10.6472   -1.8151  -22.6350 C   0  0  0  0  0  0  0  0  0  0  0  0
  -11.1982   -2.7984  -21.8127 C   0  0  0  0  0  0  0  0  0  0  0  0
  -12.5544   -2.8003  -21.5708 C   0  0  0  0  0  0  0  0  0  0  0  0
  -13.0279   -3.7073  -20.7025 F   0  0  0  0  0  0  0  0  0  0  0  0
  -13.4303   -1.8904  -22.1533 C   0  0  0  0  0  0  0  0  0  0  0  0
  -12.9002   -0.9453  -22.9998 C   0  0  0  0  0  0  0  0  0  0  0  0
  -11.5262   -0.8807  -23.2029 C   0  0  0  0  0  0  0  0  0  0  0  0
  -11.0231    0.2924  -23.9716 C   0  0  0  0  0  0  0  0  0  0  0  0
  -11.7697    1.1861  -24.3578 O   0  0  0  0  0  0  0  0  0  0  0  0
  -13.5166   -0.2091  -23.5027 H   0  0  0  0  0  0  0  0  0  0  0  0
  -14.4847   -1.8989  -21.9137 H   0  0  0  0  0  0  0  0  0  0  0  0
  -10.5972   -3.5552  -21.3230 H   0  0  0  0  0  0  0  0  0  0  0  0
   -7.8128   -0.6147  -24.1605 H   0  0  0  0  0  0  0  0  0  0  0  0
   -9.1032   -1.5593  -24.9241 H   0  0  0  0  0  0  0  0  0  0  0  0
   -9.9408    2.1933  -24.9686 H   0  0  0  0  0  0  0  0  0  0  0  0
   -8.6167    1.2695  -25.7195 H   0  0  0  0  0  0  0  0  0  0  0  0
   -9.4403    2.6710  -22.3947 H   0  0  0  0  0  0  0  0  0  0  0  0
   -6.7762    3.9335  -22.4318 H   0  0  0  0  0  0  0  0  0  0  0  0
   -6.9691    2.4763  -21.4166 H   0  0  0  0  0  0  0  0  0  0  0  0
   -7.9164    4.0073  -21.1097 H   0  0  0  0  0  0  0  0  0  0  0  0
  1  2  1  0
  2  3  1  0
  3  4  2  0
  3  5  1  0
  5  6  1  0
  6  7  1  0
  8  7  1  6
  8  9  1  0
  9 10  2  0
  9 11  1  0
 11 12  1  0
 12 13  2  0
 13 14  1  0
 14 15  2  0
 15 16  1  0
 16 17  2  0
 17 18  1  0
 18 19  2  0
 19 20  1  0
 20 21  2  0
 20 22  1  0
 19 23  1  0
 18 24  1  0
 17 25  1  0
 15 26  1  0
 13 27  1  0
 11 28  1  0
 28 29  1  0
 29 30  1  0
 30 31  1  0
 31 32  2  0
 31 33  2  0
 31 34  1  0
 34 35  1  0
 35 36  1  0
 35 37  1  0
 35 38  1  0
 34 39  1  0
 30 40  1  0
 30 41  1  0
 29 42  1  1
 28 43  1  0
 28 44  1  0
  8 45  1  0
 45 46  2  0
 46 47  1  0
 47 48  1  0
 47 49  2  0
 49 50  1  0
 50 51  2  0
 51 52  1  0
 52 53  2  0
 50 54  1  0
 49 55  1  0
 46 56  1  0
  7 57  1  0
  7 58  1  0
  5 59  1  0
  5 60  1  0
  2 61  1  0
  1 62  1  0
  1 63  1  0
  1 64  1  0
 52  6  1  0
 29  8  1  0
 51 45  1  0
 21 12  1  0
 21 16  1  0
M  END
>  <cnnaffinities>  (88) 
[6.27765, 6.00206]

>  <score>  (88) 
6.27765

>  <index>  (88) 
90

>  <Smiles>  (88) 
C(N(C(=O)C(N1C([C@@]2(C(=O)N(c3c(nc(c4c(c(c(c(c34)[H])[H])[H])[H])[H])[H])C([C@@]2(C(S(=O)(=O)N(C([H])([H])[H])[H])([H])[H])[H])([H])[H])c2c(c(F)c(c(c2C1=O)[H])[H])[H])([H])[H])([H])[H])[H])([H])([H])[H]

>  <h>  (88) 
<NA>

>  <Training>  (88) 
True

>  <Success>  (88) 
True

>  <enamine_searched>  (88) 
False

>  <enamine_id>  (88) 
nan

$$$$

     RDKit          3D

 66 71  0  0  0  0  0  0  0  0999 V2000
   -7.3531    3.3947  -21.9314 C   0  0  0  0  0  0  0  0  0  0  0  0
   -8.3006    2.8908  -22.9142 N   0  0  0  0  0  0  0  0  0  0  0  0
   -7.8043    2.1631  -23.9522 C   0  0  0  0  0  0  0  0  0  0  0  0
   -6.6084    1.9695  -24.0903 O   0  0  0  0  0  0  0  0  0  0  0  0
   -8.8161    1.5671  -24.9318 C   0  0  0  0  0  0  0  0  0  0  0  0
   -9.4507    0.4075  -24.3382 N   0  0  0  0  0  0  0  0  0  0  0  0
   -8.6609   -0.8118  -24.1875 C   0  0  0  0  0  0  0  0  0  0  0  0
   -9.0130   -1.5558  -22.8767 C   0  0  2  0  0  0  0  0  0  0  0  0
   -8.5092   -0.7709  -21.6473 C   0  0  0  0  0  0  0  0  0  0  0  0
   -9.0063    0.2097  -21.1299 O   0  0  0  0  0  0  0  0  0  0  0  0
   -7.3687   -1.3895  -21.1946 N   0  0  0  0  0  0  0  0  0  0  0  0
   -6.5958   -0.8124  -20.1651 C   0  0  0  0  0  0  0  0  0  0  0  0
   -6.9361   -1.0266  -18.8531 C   0  0  0  0  0  0  0  0  0  0  0  0
   -6.2438   -0.5339  -17.7990 N   0  0  0  0  0  0  0  0  0  0  0  0
   -5.1929    0.2051  -18.0697 C   0  0  0  0  0  0  0  0  0  0  0  0
   -4.7467    0.5206  -19.3851 C   0  0  0  0  0  0  0  0  0  0  0  0
   -3.6208    1.3485  -19.6270 C   0  0  0  0  0  0  0  0  0  0  0  0
   -3.2386    1.6486  -20.9063 C   0  0  0  0  0  0  0  0  0  0  0  0
   -3.9714    1.1493  -22.0073 C   0  0  0  0  0  0  0  0  0  0  0  0
   -5.0690    0.3490  -21.8028 C   0  0  0  0  0  0  0  0  0  0  0  0
   -5.4726    0.0069  -20.4807 C   0  0  0  0  0  0  0  0  0  0  0  0
   -5.6480    0.0077  -22.6567 H   0  0  0  0  0  0  0  0  0  0  0  0
   -3.6760    1.4114  -23.0187 H   0  0  0  0  0  0  0  0  0  0  0  0
   -2.3748    2.2846  -21.0824 H   0  0  0  0  0  0  0  0  0  0  0  0
   -3.0866    1.7468  -18.7709 H   0  0  0  0  0  0  0  0  0  0  0  0
   -4.6363    0.6007  -17.2230 H   0  0  0  0  0  0  0  0  0  0  0  0
   -7.8102   -1.6345  -18.6244 H   0  0  0  0  0  0  0  0  0  0  0  0
   -6.9719   -2.5621  -21.9460 C   0  0  0  0  0  0  0  0  0  0  0  0
   -8.2508   -2.9037  -22.7198 C   0  0  2  0  0  0  0  0  0  0  0  0
   -8.0384   -3.7188  -24.0021 C   0  0  0  0  0  0  0  0  0  0  0  0
   -7.6206   -5.0860  -23.7592 N   0  0  0  0  0  0  0  0  0  0  0  0
   -6.3206   -5.4360  -23.4880 C   0  0  0  0  0  0  0  0  0  0  0  0
   -5.2217   -4.6695  -23.9421 C   0  0  0  0  0  0  0  0  0  0  0  0
   -3.9783   -5.0460  -23.7186 N   0  0  0  0  0  0  0  0  0  0  0  0
   -3.7777   -6.1619  -23.0138 C   0  0  0  0  0  0  0  0  0  0  0  0
   -4.8521   -6.9056  -22.5607 C   0  0  0  0  0  0  0  0  0  0  0  0
   -6.1182   -6.5642  -22.8069 N   0  0  0  0  0  0  0  0  0  0  0  0
   -4.6930   -7.8095  -21.9783 H   0  0  0  0  0  0  0  0  0  0  0  0
   -2.7468   -6.4520  -22.8120 H   0  0  0  0  0  0  0  0  0  0  0  0
   -5.3534   -3.7417  -24.5001 H   0  0  0  0  0  0  0  0  0  0  0  0
   -8.2898   -5.7047  -23.3169 H   0  0  0  0  0  0  0  0  0  0  0  0
   -7.2830   -3.2294  -24.6275 H   0  0  0  0  0  0  0  0  0  0  0  0
   -8.9714   -3.7408  -24.5813 H   0  0  0  0  0  0  0  0  0  0  0  0
   -8.8416   -3.5272  -22.0434 H   0  0  0  0  0  0  0  0  0  0  0  0
   -6.6597   -3.3663  -21.2729 H   0  0  0  0  0  0  0  0  0  0  0  0
   -6.1255   -2.3426  -22.6142 H   0  0  0  0  0  0  0  0  0  0  0  0
  -10.5136   -1.6673  -22.7820 C   0  0  0  0  0  0  0  0  0  0  0  0
  -11.0799   -2.5764  -21.8844 C   0  0  0  0  0  0  0  0  0  0  0  0
  -12.4448   -2.6235  -21.7012 C   0  0  0  0  0  0  0  0  0  0  0  0
  -13.0417   -3.7165  -20.4845 Cl  0  0  0  0  0  0  0  0  0  0  0  0
  -13.3027   -1.7914  -22.4213 C   0  0  0  0  0  0  0  0  0  0  0  0
  -12.7456   -0.8646  -23.2846 C   0  0  0  0  0  0  0  0  0  0  0  0
  -11.3626   -0.7620  -23.4295 C   0  0  0  0  0  0  0  0  0  0  0  0
  -10.8161    0.3944  -24.2172 C   0  0  0  0  0  0  0  0  0  0  0  0
  -11.5394    1.2629  -24.6886 O   0  0  0  0  0  0  0  0  0  0  0  0
  -13.3671   -0.1701  -23.8387 H   0  0  0  0  0  0  0  0  0  0  0  0
  -14.3750   -1.8539  -22.2709 H   0  0  0  0  0  0  0  0  0  0  0  0
  -10.4746   -3.2435  -21.2824 H   0  0  0  0  0  0  0  0  0  0  0  0
   -8.8563   -1.4776  -25.0400 H   0  0  0  0  0  0  0  0  0  0  0  0
   -7.5987   -0.5435  -24.1995 H   0  0  0  0  0  0  0  0  0  0  0  0
   -8.2886    1.2916  -25.8518 H   0  0  0  0  0  0  0  0  0  0  0  0
   -9.6081    2.2726  -25.1911 H   0  0  0  0  0  0  0  0  0  0  0  0
   -9.2342    2.6770  -22.5855 H   0  0  0  0  0  0  0  0  0  0  0  0
   -6.8076    2.5591  -21.4703 H   0  0  0  0  0  0  0  0  0  0  0  0
   -6.6300    4.0467  -22.4289 H   0  0  0  0  0  0  0  0  0  0  0  0
   -7.8799    3.9847  -21.1778 H   0  0  0  0  0  0  0  0  0  0  0  0
  1  2  1  0
  2  3  1  0
  3  4  2  0
  3  5  1  0
  5  6  1  0
  6  7  1  0
  8  7  1  6
  8  9  1  0
  9 10  2  0
  9 11  1  0
 11 12  1  0
 12 13  2  0
 13 14  1  0
 14 15  2  0
 15 16  1  0
 16 17  2  0
 17 18  1  0
 18 19  2  0
 19 20  1  0
 20 21  2  0
 20 22  1  0
 19 23  1  0
 18 24  1  0
 17 25  1  0
 15 26  1  0
 13 27  1  0
 11 28  1  0
 28 29  1  0
 29 30  1  0
 30 31  1  0
 31 32  1  0
 32 33  2  0
 33 34  1  0
 34 35  2  0
 35 36  1  0
 36 37  2  0
 36 38  1  0
 35 39  1  0
 33 40  1  0
 31 41  1  0
 30 42  1  0
 30 43  1  0
 29 44  1  1
 28 45  1  0
 28 46  1  0
  8 47  1  0
 47 48  2  0
 48 49  1  0
 49 50  1  0
 49 51  2  0
 51 52  1  0
 52 53  2  0
 53 54  1  0
 54 55  2  0
 52 56  1  0
 51 57  1  0
 48 58  1  0
  7 59  1  0
  7 60  1  0
  5 61  1  0
  5 62  1  0
  2 63  1  0
  1 64  1  0
  1 65  1  0
  1 66  1  0
 54  6  1  0
 29  8  1  0
 37 32  1  0
 53 47  1  0
 21 12  1  0
 21 16  1  0
M  END
>  <cnnaffinities>  (89) 
[6.6031]

>  <score>  (89) 
6.6031

>  <index>  (89) 
91

>  <Smiles>  (89) 
C(N(C(=O)C(N1C([C@@]2(C(=O)N(c3c(nc(c4c(c(c(c(c34)[H])[H])[H])[H])[H])[H])C([C@@]2(C(N(c2c(nc(c(n2)[H])[H])[H])[H])([H])[H])[H])([H])[H])c2c(c(Cl)c(c(c2C1=O)[H])[H])[H])([H])[H])([H])[H])[H])([H])([H])[H]

>  <h>  (89) 
<NA>

>  <Training>  (89) 
True

>  <Success>  (89) 
True

>  <enamine_searched>  (89) 
False

>  <enamine_id>  (89) 
nan

$$$$

     RDKit          3D

 60 65  0  0  0  0  0  0  0  0999 V2000
   -6.7798   -3.4382  -26.0934 C   0  0  0  0  0  0  0  0  0  0  0  0
   -7.0063   -2.8925  -24.8190 O   0  0  0  0  0  0  0  0  0  0  0  0
   -7.9854   -3.5951  -24.0822 C   0  0  0  0  0  0  0  0  0  0  0  0
   -8.2882   -2.8780  -22.7701 C   0  0  1  0  0  0  0  0  0  0  0  0
   -7.0179   -2.5492  -21.9724 C   0  0  0  0  0  0  0  0  0  0  0  0
   -7.3767   -1.3514  -21.2387 N   0  0  0  0  0  0  0  0  0  0  0  0
   -6.5956   -0.8069  -20.1900 C   0  0  0  0  0  0  0  0  0  0  0  0
   -6.9312   -1.0297  -18.8790 C   0  0  0  0  0  0  0  0  0  0  0  0
   -6.2389   -0.5389  -17.8205 N   0  0  0  0  0  0  0  0  0  0  0  0
   -5.1936    0.2103  -18.0831 C   0  0  0  0  0  0  0  0  0  0  0  0
   -4.7428    0.5292  -19.3974 C   0  0  0  0  0  0  0  0  0  0  0  0
   -3.6240    1.3702  -19.6354 C   0  0  0  0  0  0  0  0  0  0  0  0
   -3.2332    1.6560  -20.9148 C   0  0  0  0  0  0  0  0  0  0  0  0
   -3.9233    1.1060  -22.0148 C   0  0  0  0  0  0  0  0  0  0  0  0
   -4.9966    0.2716  -21.8092 C   0  0  0  0  0  0  0  0  0  0  0  0
   -5.4475   -0.0163  -20.4928 C   0  0  0  0  0  0  0  0  0  0  0  0
   -5.5174   -0.1634  -22.6577 H   0  0  0  0  0  0  0  0  0  0  0  0
   -3.5957    1.3512  -23.0219 H   0  0  0  0  0  0  0  0  0  0  0  0
   -2.3781    2.3003  -21.0909 H   0  0  0  0  0  0  0  0  0  0  0  0
   -3.1016    1.7843  -18.7779 H   0  0  0  0  0  0  0  0  0  0  0  0
   -4.6406    0.6115  -17.2327 H   0  0  0  0  0  0  0  0  0  0  0  0
   -7.8003   -1.6393  -18.6424 H   0  0  0  0  0  0  0  0  0  0  0  0
   -8.5920   -0.8027  -21.5859 C   0  0  0  0  0  0  0  0  0  0  0  0
   -9.1339    0.1035  -20.9876 O   0  0  0  0  0  0  0  0  0  0  0  0
   -9.1254   -1.5604  -22.8276 C   0  0  1  0  0  0  0  0  0  0  0  0
   -8.8534   -0.7824  -24.1418 C   0  0  0  0  0  0  0  0  0  0  0  0
   -9.6992    0.3924  -24.2716 N   0  0  0  0  0  0  0  0  0  0  0  0
   -9.1180    1.6334  -24.7710 C   0  0  0  0  0  0  0  0  0  0  0  0
   -8.3314    2.3986  -23.7358 C   0  0  0  0  0  0  0  0  0  0  0  0
   -8.8694    3.3080  -22.7888 C   0  0  0  0  0  0  0  0  0  0  0  0
   -7.9385    3.7723  -21.9538 N   0  0  0  0  0  0  0  0  0  0  0  0
   -6.8112    3.1878  -22.3631 N   0  0  0  0  0  0  0  0  0  0  0  0
   -6.9876    2.3566  -23.4216 C   0  0  0  0  0  0  0  0  0  0  0  0
   -6.1371    1.8101  -23.8107 H   0  0  0  0  0  0  0  0  0  0  0  0
   -5.9252    3.3551  -21.9042 H   0  0  0  0  0  0  0  0  0  0  0  0
   -9.8976    3.6462  -22.6732 H   0  0  0  0  0  0  0  0  0  0  0  0
   -8.5017    1.3970  -25.6440 H   0  0  0  0  0  0  0  0  0  0  0  0
   -9.9597    2.2363  -25.1286 H   0  0  0  0  0  0  0  0  0  0  0  0
  -11.0533    0.3312  -24.0803 C   0  0  0  0  0  0  0  0  0  0  0  0
  -11.8173    1.1855  -24.5154 O   0  0  0  0  0  0  0  0  0  0  0  0
  -11.5333   -0.8223  -23.2585 C   0  0  0  0  0  0  0  0  0  0  0  0
  -12.9015   -0.8994  -22.9967 C   0  0  0  0  0  0  0  0  0  0  0  0
  -13.3909   -1.8406  -22.1130 C   0  0  0  0  0  0  0  0  0  0  0  0
  -12.4925   -2.7438  -21.5464 C   0  0  0  0  0  0  0  0  0  0  0  0
  -13.0439   -3.9601  -20.4346 Cl  0  0  0  0  0  0  0  0  0  0  0  0
  -11.1410   -2.6927  -21.8160 C   0  0  0  0  0  0  0  0  0  0  0  0
  -10.6278   -1.7254  -22.6831 C   0  0  0  0  0  0  0  0  0  0  0  0
  -10.5023   -3.4019  -21.3044 H   0  0  0  0  0  0  0  0  0  0  0  0
  -14.4335   -1.8645  -21.8192 H   0  0  0  0  0  0  0  0  0  0  0  0
  -13.5472   -0.1795  -23.4891 H   0  0  0  0  0  0  0  0  0  0  0  0
   -9.0267   -1.4763  -24.9749 H   0  0  0  0  0  0  0  0  0  0  0  0
   -7.8073   -0.4711  -24.1953 H   0  0  0  0  0  0  0  0  0  0  0  0
   -6.1609   -2.3796  -22.6347 H   0  0  0  0  0  0  0  0  0  0  0  0
   -6.7582   -3.3591  -21.2809 H   0  0  0  0  0  0  0  0  0  0  0  0
   -8.8729   -3.5870  -22.1799 H   0  0  0  0  0  0  0  0  0  0  0  0
   -7.6217   -4.6097  -23.8608 H   0  0  0  0  0  0  0  0  0  0  0  0
   -8.9116   -3.6978  -24.6717 H   0  0  0  0  0  0  0  0  0  0  0  0
   -6.0173   -2.8282  -26.5846 H   0  0  0  0  0  0  0  0  0  0  0  0
   -6.4150   -4.4738  -26.0283 H   0  0  0  0  0  0  0  0  0  0  0  0
   -7.6928   -3.4230  -26.7087 H   0  0  0  0  0  0  0  0  0  0  0  0
  1  2  1  0
  2  3  1  0
  3  4  1  0
  4  5  1  0
  5  6  1  0
  6  7  1  0
  7  8  2  0
  8  9  1  0
  9 10  2  0
 10 11  1  0
 11 12  2  0
 12 13  1  0
 13 14  2  0
 14 15  1  0
 15 16  2  0
 15 17  1  0
 14 18  1  0
 13 19  1  0
 12 20  1  0
 10 21  1  0
  8 22  1  0
  6 23  1  0
 23 24  2  0
 23 25  1  0
 25 26  1  6
 26 27  1  0
 27 28  1  0
 28 29  1  0
 29 30  1  0
 30 31  2  0
 31 32  1  0
 32 33  1  0
 33 34  1  0
 32 35  1  0
 30 36  1  0
 28 37  1  0
 28 38  1  0
 27 39  1  0
 39 40  2  0
 39 41  1  0
 41 42  2  0
 42 43  1  0
 43 44  2  0
 44 45  1  0
 44 46  1  0
 46 47  2  0
 46 48  1  0
 43 49  1  0
 42 50  1  0
 26 51  1  0
 26 52  1  0
  5 53  1  0
  5 54  1  0
  4 55  1  1
  3 56  1  0
  3 57  1  0
  1 58  1  0
  1 59  1  0
  1 60  1  0
 25  4  1  0
 33 29  2  0
 47 41  1  0
 16  7  1  0
 47 25  1  0
 16 11  1  0
M  END
>  <cnnaffinities>  (90) 
[6.24163, 6.27381]

>  <score>  (90) 
6.24163

>  <index>  (90) 
92

>  <Smiles>  (90) 
C(OC([C@]1(C(N(c2c(nc(c3c(c(c(c(c23)[H])[H])[H])[H])[H])[H])C(=O)[C@]21C(N(C(c1c(nn(c1[H])[H])[H])([H])[H])C(=O)c1c(c(c(Cl)c(c21)[H])[H])[H])([H])[H])([H])[H])[H])([H])[H])([H])([H])[H]

>  <h>  (90) 
<NA>

>  <Training>  (90) 
True

>  <Success>  (90) 
True

>  <enamine_searched>  (90) 
False

>  <enamine_id>  (90) 
nan

$$$$

     RDKit          3D

 62 67  0  0  0  0  0  0  0  0999 V2000
  -11.2581    4.3481  -25.2081 C   0  0  0  0  0  0  0  0  0  0  0  0
   -9.7771    4.1708  -25.5112 C   0  0  0  0  0  0  0  0  0  0  0  0
   -9.0028    3.5786  -24.4344 N   0  0  0  0  0  0  0  0  0  0  0  0
   -8.4495    4.4116  -23.5430 N   0  0  0  0  0  0  0  0  0  0  0  0
   -7.8804    3.6294  -22.6397 C   0  0  0  0  0  0  0  0  0  0  0  0
   -8.0727    2.2676  -22.9452 C   0  0  0  0  0  0  0  0  0  0  0  0
   -8.8051    2.2701  -24.1137 C   0  0  0  0  0  0  0  0  0  0  0  0
   -9.3017    1.1273  -24.9566 C   0  0  0  0  0  0  0  0  0  0  0  0
   -9.7556    0.0171  -24.1457 N   0  0  0  0  0  0  0  0  0  0  0  0
   -8.9559   -1.1829  -24.0058 C   0  0  0  0  0  0  0  0  0  0  0  0
   -9.1737   -1.8841  -22.6410 C   0  0  2  0  0  0  0  0  0  0  0  0
   -8.6374   -1.0280  -21.4720 C   0  0  0  0  0  0  0  0  0  0  0  0
   -9.2102   -0.1139  -20.9132 O   0  0  0  0  0  0  0  0  0  0  0  0
   -7.3630   -1.4511  -21.1809 N   0  0  0  0  0  0  0  0  0  0  0  0
   -6.5985   -0.8395  -20.1614 C   0  0  0  0  0  0  0  0  0  0  0  0
   -6.9238   -1.0468  -18.8447 C   0  0  0  0  0  0  0  0  0  0  0  0
   -6.2254   -0.5409  -17.7986 N   0  0  0  0  0  0  0  0  0  0  0  0
   -5.1832    0.2051  -18.0757 C   0  0  0  0  0  0  0  0  0  0  0  0
   -4.7472    0.5117  -19.3961 C   0  0  0  0  0  0  0  0  0  0  0  0
   -3.6256    1.3470  -19.6369 C   0  0  0  0  0  0  0  0  0  0  0  0
   -3.2443    1.6470  -20.9146 C   0  0  0  0  0  0  0  0  0  0  0  0
   -3.9683    1.1301  -22.0121 C   0  0  0  0  0  0  0  0  0  0  0  0
   -5.0607    0.3193  -21.8058 C   0  0  0  0  0  0  0  0  0  0  0  0
   -5.4720   -0.0196  -20.4866 C   0  0  0  0  0  0  0  0  0  0  0  0
   -5.6160   -0.0560  -22.6615 H   0  0  0  0  0  0  0  0  0  0  0  0
   -3.6642    1.3876  -23.0227 H   0  0  0  0  0  0  0  0  0  0  0  0
   -2.3909    2.2958  -21.0931 H   0  0  0  0  0  0  0  0  0  0  0  0
   -3.0976    1.7549  -18.7790 H   0  0  0  0  0  0  0  0  0  0  0  0
   -4.6201    0.6116  -17.2332 H   0  0  0  0  0  0  0  0  0  0  0  0
   -7.7852   -1.6596  -18.5866 H   0  0  0  0  0  0  0  0  0  0  0  0
   -6.9464   -2.6144  -21.9391 C   0  0  0  0  0  0  0  0  0  0  0  0
   -8.2762   -3.1484  -22.5067 C   0  0  2  0  0  0  0  0  0  0  0  0
   -8.0958   -3.9902  -23.7670 C   0  0  0  0  0  0  0  0  0  0  0  0
   -7.5639   -3.4207  -24.5398 H   0  0  0  0  0  0  0  0  0  0  0  0
   -7.5072   -4.8907  -23.5622 H   0  0  0  0  0  0  0  0  0  0  0  0
   -9.0588   -4.3027  -24.1870 H   0  0  0  0  0  0  0  0  0  0  0  0
   -8.7311   -3.7567  -21.7177 H   0  0  0  0  0  0  0  0  0  0  0  0
   -6.4377   -3.3297  -21.2861 H   0  0  0  0  0  0  0  0  0  0  0  0
   -6.2496   -2.3480  -22.7490 H   0  0  0  0  0  0  0  0  0  0  0  0
  -10.6626   -2.0668  -22.4762 C   0  0  0  0  0  0  0  0  0  0  0  0
  -11.2145   -3.1213  -21.7471 C   0  0  0  0  0  0  0  0  0  0  0  0
  -12.5311   -3.0388  -21.3414 C   0  0  0  0  0  0  0  0  0  0  0  0
  -13.0017   -3.9788  -20.5047 F   0  0  0  0  0  0  0  0  0  0  0  0
  -13.3825   -2.0097  -21.7371 C   0  0  0  0  0  0  0  0  0  0  0  0
  -12.8792   -1.0614  -22.5882 C   0  0  0  0  0  0  0  0  0  0  0  0
  -11.5329   -1.0651  -22.9274 C   0  0  0  0  0  0  0  0  0  0  0  0
  -11.0498    0.0792  -23.7405 C   0  0  0  0  0  0  0  0  0  0  0  0
  -11.7864    1.0098  -24.0419 O   0  0  0  0  0  0  0  0  0  0  0  0
  -13.5037   -0.2687  -22.9768 H   0  0  0  0  0  0  0  0  0  0  0  0
  -14.3985   -1.9338  -21.3616 H   0  0  0  0  0  0  0  0  0  0  0  0
  -10.6333   -3.9776  -21.4194 H   0  0  0  0  0  0  0  0  0  0  0  0
   -9.2029   -1.9069  -24.7966 H   0  0  0  0  0  0  0  0  0  0  0  0
   -7.9081   -0.9059  -24.1265 H   0  0  0  0  0  0  0  0  0  0  0  0
  -10.1680    1.4386  -25.5514 H   0  0  0  0  0  0  0  0  0  0  0  0
   -8.5312    0.7425  -25.6358 H   0  0  0  0  0  0  0  0  0  0  0  0
   -7.7866    1.3910  -22.3786 H   0  0  0  0  0  0  0  0  0  0  0  0
   -7.3668    4.1050  -21.8133 H   0  0  0  0  0  0  0  0  0  0  0  0
   -9.3101    5.1430  -25.6765 H   0  0  0  0  0  0  0  0  0  0  0  0
   -9.6403    3.5699  -26.4148 H   0  0  0  0  0  0  0  0  0  0  0  0
  -11.7626    3.3830  -25.0862 H   0  0  0  0  0  0  0  0  0  0  0  0
  -11.4152    4.9461  -24.3065 H   0  0  0  0  0  0  0  0  0  0  0  0
  -11.7035    4.8908  -26.0471 H   0  0  0  0  0  0  0  0  0  0  0  0
  1  2  1  0
  2  3  1  0
  3  4  1  0
  4  5  2  0
  5  6  1  0
  6  7  2  0
  7  8  1  0
  8  9  1  0
  9 10  1  0
 11 10  1  6
 11 12  1  0
 12 13  2  0
 12 14  1  0
 14 15  1  0
 15 16  2  0
 16 17  1  0
 17 18  2  0
 18 19  1  0
 19 20  2  0
 20 21  1  0
 21 22  2  0
 22 23  1  0
 23 24  2  0
 23 25  1  0
 22 26  1  0
 21 27  1  0
 20 28  1  0
 18 29  1  0
 16 30  1  0
 14 31  1  0
 31 32  1  0
 32 33  1  0
 33 34  1  0
 33 35  1  0
 33 36  1  0
 32 37  1  1
 31 38  1  0
 31 39  1  0
 11 40  1  0
 40 41  2  0
 41 42  1  0
 42 43  1  0
 42 44  2  0
 44 45  1  0
 45 46  2  0
 46 47  1  0
 47 48  2  0
 45 49  1  0
 44 50  1  0
 41 51  1  0
 10 52  1  0
 10 53  1  0
  8 54  1  0
  8 55  1  0
  6 56  1  0
  5 57  1  0
  2 58  1  0
  2 59  1  0
  1 60  1  0
  1 61  1  0
  1 62  1  0
  7  3  1  0
 47  9  1  0
 32 11  1  0
 46 40  1  0
 24 15  1  0
 24 19  1  0
M  END
>  <cnnaffinities>  (91) 
[6.59467, 6.3267, 6.18113]

>  <score>  (91) 
6.59467

>  <index>  (91) 
93

>  <Smiles>  (91) 
C(C(n1nc(c(c1C(N1C([C@@]2(C(=O)N(c3c(nc(c4c(c(c(c(c34)[H])[H])[H])[H])[H])[H])C([C@@]2(C([H])([H])[H])[H])([H])[H])c2c(c(F)c(c(c2C1=O)[H])[H])[H])([H])[H])([H])[H])[H])[H])([H])[H])([H])([H])[H]

>  <h>  (91) 
<NA>

>  <Training>  (91) 
True

>  <Success>  (91) 
True

>  <enamine_searched>  (91) 
False

>  <enamine_id>  (91) 
nan

$$$$

     RDKit          3D

 66 71  0  0  0  0  0  0  0  0999 V2000
   -7.3709    3.3863  -21.9095 C   0  0  0  0  0  0  0  0  0  0  0  0
   -8.3154    2.8965  -22.8992 N   0  0  0  0  0  0  0  0  0  0  0  0
   -7.8067    2.1689  -23.9342 C   0  0  0  0  0  0  0  0  0  0  0  0
   -6.6042    1.9835  -24.0674 O   0  0  0  0  0  0  0  0  0  0  0  0
   -8.8124    1.5765  -24.9198 C   0  0  0  0  0  0  0  0  0  0  0  0
   -9.4555    0.4146  -24.3354 N   0  0  0  0  0  0  0  0  0  0  0  0
   -8.6769   -0.8067  -24.1810 C   0  0  0  0  0  0  0  0  0  0  0  0
   -9.0359   -1.5401  -22.8664 C   0  0  2  0  0  0  0  0  0  0  0  0
   -8.5251   -0.7563  -21.6401 C   0  0  0  0  0  0  0  0  0  0  0  0
   -9.0188    0.2301  -21.1234 O   0  0  0  0  0  0  0  0  0  0  0  0
   -7.3815   -1.3754  -21.1958 N   0  0  0  0  0  0  0  0  0  0  0  0
   -6.6022   -0.8061  -20.1681 C   0  0  0  0  0  0  0  0  0  0  0  0
   -6.9346   -1.0275  -18.8562 C   0  0  0  0  0  0  0  0  0  0  0  0
   -6.2406   -0.5376  -17.8019 N   0  0  0  0  0  0  0  0  0  0  0  0
   -5.1918    0.2052  -18.0711 C   0  0  0  0  0  0  0  0  0  0  0  0
   -4.7474    0.5213  -19.3878 C   0  0  0  0  0  0  0  0  0  0  0  0
   -3.6206    1.3492  -19.6296 C   0  0  0  0  0  0  0  0  0  0  0  0
   -3.2388    1.6494  -20.9084 C   0  0  0  0  0  0  0  0  0  0  0  0
   -3.9679    1.1472  -22.0098 C   0  0  0  0  0  0  0  0  0  0  0  0
   -5.0647    0.3447  -21.8043 C   0  0  0  0  0  0  0  0  0  0  0  0
   -5.4741    0.0064  -20.4838 C   0  0  0  0  0  0  0  0  0  0  0  0
   -5.6384   -0.0013  -22.6588 H   0  0  0  0  0  0  0  0  0  0  0  0
   -3.6707    1.4054  -23.0204 H   0  0  0  0  0  0  0  0  0  0  0  0
   -2.3767    2.2845  -21.0840 H   0  0  0  0  0  0  0  0  0  0  0  0
   -3.0872    1.7500  -18.7730 H   0  0  0  0  0  0  0  0  0  0  0  0
   -4.6317    0.6008  -17.2246 H   0  0  0  0  0  0  0  0  0  0  0  0
   -7.8044   -1.6373  -18.6249 H   0  0  0  0  0  0  0  0  0  0  0  0
   -6.9985   -2.5556  -21.9428 C   0  0  0  0  0  0  0  0  0  0  0  0
   -8.2866   -2.8892  -22.7004 C   0  0  2  0  0  0  0  0  0  0  0  0
   -8.1049   -3.7301  -23.9649 C   0  0  0  0  0  0  0  0  0  0  0  0
   -7.6642   -5.0752  -23.6839 N   0  0  0  0  0  0  0  0  0  0  0  0
   -6.3615   -5.4121  -23.4994 C   0  0  0  0  0  0  0  0  0  0  0  0
   -5.2884   -4.7168  -24.0953 C   0  0  0  0  0  0  0  0  0  0  0  0
   -4.0416   -5.2976  -23.9843 C   0  0  0  0  0  0  0  0  0  0  0  0
   -3.8068   -6.3850  -23.2447 N   0  0  0  0  0  0  0  0  0  0  0  0
   -4.8751   -6.8767  -22.6291 C   0  0  0  0  0  0  0  0  0  0  0  0
   -6.1422   -6.4882  -22.7317 N   0  0  0  0  0  0  0  0  0  0  0  0
   -4.6901   -7.6995  -21.9475 H   0  0  0  0  0  0  0  0  0  0  0  0
   -3.1829   -4.8655  -24.5128 H   0  0  0  0  0  0  0  0  0  0  0  0
   -5.4275   -3.7702  -24.6093 H   0  0  0  0  0  0  0  0  0  0  0  0
   -8.3178   -5.7316  -23.2716 H   0  0  0  0  0  0  0  0  0  0  0  0
   -7.3785   -3.2500  -24.6264 H   0  0  0  0  0  0  0  0  0  0  0  0
   -9.0467   -3.7750  -24.5202 H   0  0  0  0  0  0  0  0  0  0  0  0
   -8.8777   -3.4919  -22.0087 H   0  0  0  0  0  0  0  0  0  0  0  0
   -6.1511   -2.3661  -22.6213 H   0  0  0  0  0  0  0  0  0  0  0  0
   -6.7008   -3.3518  -21.2557 H   0  0  0  0  0  0  0  0  0  0  0  0
  -10.5346   -1.6473  -22.7756 C   0  0  0  0  0  0  0  0  0  0  0  0
  -11.0953   -2.5629  -21.8860 C   0  0  0  0  0  0  0  0  0  0  0  0
  -12.4588   -2.6098  -21.7130 C   0  0  0  0  0  0  0  0  0  0  0  0
  -13.0623   -3.6956  -20.4973 Cl  0  0  0  0  0  0  0  0  0  0  0  0
  -13.3154   -1.7797  -22.4344 C   0  0  0  0  0  0  0  0  0  0  0  0
  -12.7650   -0.8467  -23.2918 C   0  0  0  0  0  0  0  0  0  0  0  0
  -11.3804   -0.7450  -23.4294 C   0  0  0  0  0  0  0  0  0  0  0  0
  -10.8209    0.4034  -24.2157 C   0  0  0  0  0  0  0  0  0  0  0  0
  -11.5296    1.2835  -24.6854 O   0  0  0  0  0  0  0  0  0  0  0  0
  -13.3873   -0.1546  -23.8465 H   0  0  0  0  0  0  0  0  0  0  0  0
  -14.3854   -1.8505  -22.2840 H   0  0  0  0  0  0  0  0  0  0  0  0
  -10.4911   -3.2374  -21.2906 H   0  0  0  0  0  0  0  0  0  0  0  0
   -7.6127   -0.5476  -24.2033 H   0  0  0  0  0  0  0  0  0  0  0  0
   -8.8728   -1.4759  -25.0309 H   0  0  0  0  0  0  0  0  0  0  0  0
   -9.6013    2.2844  -25.1944 H   0  0  0  0  0  0  0  0  0  0  0  0
   -8.2713    1.2915  -25.8301 H   0  0  0  0  0  0  0  0  0  0  0  0
   -9.2550    2.6911  -22.5808 H   0  0  0  0  0  0  0  0  0  0  0  0
   -6.8177    2.5461  -21.4608 H   0  0  0  0  0  0  0  0  0  0  0  0
   -7.9020    3.9618  -21.1483 H   0  0  0  0  0  0  0  0  0  0  0  0
   -6.6569    4.0621  -22.3873 H   0  0  0  0  0  0  0  0  0  0  0  0
  1  2  1  0
  2  3  1  0
  3  4  2  0
  3  5  1  0
  5  6  1  0
  6  7  1  0
  8  7  1  6
  8  9  1  0
  9 10  2  0
  9 11  1  0
 11 12  1  0
 12 13  2  0
 13 14  1  0
 14 15  2  0
 15 16  1  0
 16 17  2  0
 17 18  1  0
 18 19  2  0
 19 20  1  0
 20 21  2  0
 20 22  1  0
 19 23  1  0
 18 24  1  0
 17 25  1  0
 15 26  1  0
 13 27  1  0
 11 28  1  0
 28 29  1  0
 29 30  1  0
 30 31  1  0
 31 32  1  0
 32 33  2  0
 33 34  1  0
 34 35  2  0
 35 36  1  0
 36 37  2  0
 36 38  1  0
 34 39  1  0
 33 40  1  0
 31 41  1  0
 30 42  1  0
 30 43  1  0
 29 44  1  1
 28 45  1  0
 28 46  1  0
  8 47  1  0
 47 48  2  0
 48 49  1  0
 49 50  1  0
 49 51  2  0
 51 52  1  0
 52 53  2  0
 53 54  1  0
 54 55  2  0
 52 56  1  0
 51 57  1  0
 48 58  1  0
  7 59  1  0
  7 60  1  0
  5 61  1  0
  5 62  1  0
  2 63  1  0
  1 64  1  0
  1 65  1  0
  1 66  1  0
 54  6  1  0
 29  8  1  0
 37 32  1  0
 53 47  1  0
 21 12  1  0
 21 16  1  0
M  END
>  <cnnaffinities>  (92) 
[6.54645, 6.65363, 6.07957]

>  <score>  (92) 
6.54645

>  <index>  (92) 
95

>  <Smiles>  (92) 
C(N(C(=O)C(N1C([C@@]2(C(=O)N(c3c(nc(c4c(c(c(c(c34)[H])[H])[H])[H])[H])[H])C([C@@]2(C(N(c2c(c(nc(n2)[H])[H])[H])[H])([H])[H])[H])([H])[H])c2c(c(Cl)c(c(c2C1=O)[H])[H])[H])([H])[H])([H])[H])[H])([H])([H])[H]

>  <h>  (92) 
<NA>

>  <Training>  (92) 
True

>  <Success>  (92) 
True

>  <enamine_searched>  (92) 
False

>  <enamine_id>  (92) 
nan

$$$$

     RDKit          3D

 66 70  0  0  0  0  0  0  0  0999 V2000
   -7.4570    3.3140  -21.9076 C   0  0  0  0  0  0  0  0  0  0  0  0
   -8.4734    2.8185  -22.8257 N   0  0  0  0  0  0  0  0  0  0  0  0
   -8.0151    2.0930  -23.8879 C   0  0  0  0  0  0  0  0  0  0  0  0
   -6.8241    1.8958  -24.0744 O   0  0  0  0  0  0  0  0  0  0  0  0
   -9.0430    1.5018  -24.8407 C   0  0  0  0  0  0  0  0  0  0  0  0
   -9.5925    0.2896  -24.2665 N   0  0  0  0  0  0  0  0  0  0  0  0
   -8.7600   -0.8997  -24.1310 C   0  0  0  0  0  0  0  0  0  0  0  0
   -9.0629   -1.6769  -22.8177 C   0  0  2  0  0  0  0  0  0  0  0  0
   -8.5553   -0.8843  -21.5926 C   0  0  0  0  0  0  0  0  0  0  0  0
   -9.0865    0.0723  -21.0604 O   0  0  0  0  0  0  0  0  0  0  0  0
   -7.3603   -1.4358  -21.1877 N   0  0  0  0  0  0  0  0  0  0  0  0
   -6.5913   -0.8337  -20.1643 C   0  0  0  0  0  0  0  0  0  0  0  0
   -6.9276   -1.0363  -18.8501 C   0  0  0  0  0  0  0  0  0  0  0  0
   -6.2377   -0.5348  -17.7972 N   0  0  0  0  0  0  0  0  0  0  0  0
   -5.1901    0.2074  -18.0715 C   0  0  0  0  0  0  0  0  0  0  0  0
   -4.7458    0.5174  -19.3892 C   0  0  0  0  0  0  0  0  0  0  0  0
   -3.6227    1.3519  -19.6298 C   0  0  0  0  0  0  0  0  0  0  0  0
   -3.2407    1.6486  -20.9090 C   0  0  0  0  0  0  0  0  0  0  0  0
   -3.9667    1.1384  -22.0069 C   0  0  0  0  0  0  0  0  0  0  0  0
   -5.0613    0.3319  -21.8038 C   0  0  0  0  0  0  0  0  0  0  0  0
   -5.4692   -0.0099  -20.4838 C   0  0  0  0  0  0  0  0  0  0  0  0
   -5.6368   -0.0095  -22.6591 H   0  0  0  0  0  0  0  0  0  0  0  0
   -3.6605    1.3914  -23.0171 H   0  0  0  0  0  0  0  0  0  0  0  0
   -2.3841    2.2918  -21.0851 H   0  0  0  0  0  0  0  0  0  0  0  0
   -3.0940    1.7579  -18.7717 H   0  0  0  0  0  0  0  0  0  0  0  0
   -4.6348    0.6128  -17.2260 H   0  0  0  0  0  0  0  0  0  0  0  0
   -7.7952   -1.6480  -18.6153 H   0  0  0  0  0  0  0  0  0  0  0  0
   -6.9353   -2.5933  -21.9524 C   0  0  0  0  0  0  0  0  0  0  0  0
   -8.2147   -2.9827  -22.7161 C   0  0  2  0  0  0  0  0  0  0  0  0
   -7.9300   -3.6805  -24.0410 C   0  0  0  0  0  0  0  0  0  0  0  0
   -7.2184   -4.8755  -23.8040 O   0  0  0  0  0  0  0  0  0  0  0  0
   -7.0451   -5.6944  -24.9557 C   0  0  0  0  0  0  0  0  0  0  0  0
   -5.6711   -6.3476  -24.8672 C   0  0  0  0  0  0  0  0  0  0  0  0
   -5.4906   -6.9638  -25.7586 H   0  0  0  0  0  0  0  0  0  0  0  0
   -4.8851   -5.5872  -24.8006 H   0  0  0  0  0  0  0  0  0  0  0  0
   -5.6202   -6.9874  -23.9777 H   0  0  0  0  0  0  0  0  0  0  0  0
   -8.1511   -6.7447  -25.0378 C   0  0  0  0  0  0  0  0  0  0  0  0
   -8.1243   -7.3873  -24.1497 H   0  0  0  0  0  0  0  0  0  0  0  0
   -9.1455   -6.2854  -25.1008 H   0  0  0  0  0  0  0  0  0  0  0  0
   -8.0060   -7.3704  -25.9279 H   0  0  0  0  0  0  0  0  0  0  0  0
   -7.0813   -5.0667  -25.8623 H   0  0  0  0  0  0  0  0  0  0  0  0
   -8.8806   -3.8850  -24.5585 H   0  0  0  0  0  0  0  0  0  0  0  0
   -7.3254   -3.0288  -24.6942 H   0  0  0  0  0  0  0  0  0  0  0  0
   -8.7557   -3.6994  -22.0923 H   0  0  0  0  0  0  0  0  0  0  0  0
   -6.1057   -2.3479  -22.6344 H   0  0  0  0  0  0  0  0  0  0  0  0
   -6.5920   -3.3923  -21.2874 H   0  0  0  0  0  0  0  0  0  0  0  0
  -10.5633   -1.8570  -22.7256 C   0  0  0  0  0  0  0  0  0  0  0  0
  -11.1122   -2.8090  -21.8625 C   0  0  0  0  0  0  0  0  0  0  0  0
  -12.4758   -2.8345  -21.6392 C   0  0  0  0  0  0  0  0  0  0  0  0
  -13.0854   -3.9263  -20.4333 Cl  0  0  0  0  0  0  0  0  0  0  0  0
  -13.3462   -1.9795  -22.3191 C   0  0  0  0  0  0  0  0  0  0  0  0
  -12.8166   -1.0713  -23.2049 C   0  0  0  0  0  0  0  0  0  0  0  0
  -11.4393   -0.9681  -23.3621 C   0  0  0  0  0  0  0  0  0  0  0  0
  -10.9470    0.2112  -24.1318 C   0  0  0  0  0  0  0  0  0  0  0  0
  -11.7110    1.0641  -24.5678 O   0  0  0  0  0  0  0  0  0  0  0  0
  -13.4466   -0.3826  -23.7579 H   0  0  0  0  0  0  0  0  0  0  0  0
  -14.4137   -1.9752  -22.1362 H   0  0  0  0  0  0  0  0  0  0  0  0
  -10.4928   -3.5199  -21.3274 H   0  0  0  0  0  0  0  0  0  0  0  0
   -8.9435   -1.5756  -24.9804 H   0  0  0  0  0  0  0  0  0  0  0  0
   -7.7071   -0.5986  -24.1617 H   0  0  0  0  0  0  0  0  0  0  0  0
   -8.5671    1.2781  -25.8017 H   0  0  0  0  0  0  0  0  0  0  0  0
   -9.8885    2.1657  -25.0316 H   0  0  0  0  0  0  0  0  0  0  0  0
   -9.3977    2.6276  -22.4485 H   0  0  0  0  0  0  0  0  0  0  0  0
   -6.7198    3.8870  -22.4803 H   0  0  0  0  0  0  0  0  0  0  0  0
   -7.9004    3.9963  -21.1732 H   0  0  0  0  0  0  0  0  0  0  0  0
   -6.9453    2.4595  -21.4293 H   0  0  0  0  0  0  0  0  0  0  0  0
  1  2  1  0
  2  3  1  0
  3  4  2  0
  3  5  1  0
  5  6  1  0
  6  7  1  0
  8  7  1  6
  8  9  1  0
  9 10  2  0
  9 11  1  0
 11 12  1  0
 12 13  2  0
 13 14  1  0
 14 15  2  0
 15 16  1  0
 16 17  2  0
 17 18  1  0
 18 19  2  0
 19 20  1  0
 20 21  2  0
 20 22  1  0
 19 23  1  0
 18 24  1  0
 17 25  1  0
 15 26  1  0
 13 27  1  0
 11 28  1  0
 28 29  1  0
 29 30  1  0
 30 31  1  0
 31 32  1  0
 32 33  1  0
 33 34  1  0
 33 35  1  0
 33 36  1  0
 32 37  1  0
 37 38  1  0
 37 39  1  0
 37 40  1  0
 32 41  1  0
 30 42  1  0
 30 43  1  0
 29 44  1  1
 28 45  1  0
 28 46  1  0
  8 47  1  0
 47 48  2  0
 48 49  1  0
 49 50  1  0
 49 51  2  0
 51 52  1  0
 52 53  2  0
 53 54  1  0
 54 55  2  0
 52 56  1  0
 51 57  1  0
 48 58  1  0
  7 59  1  0
  7 60  1  0
  5 61  1  0
  5 62  1  0
  2 63  1  0
  1 64  1  0
  1 65  1  0
  1 66  1  0
 54  6  1  0
 29  8  1  0
 53 47  1  0
 21 12  1  0
 21 16  1  0
M  END
>  <cnnaffinities>  (93) 
[6.48067]

>  <score>  (93) 
6.48067

>  <index>  (93) 
96

>  <Smiles>  (93) 
C(N(C(=O)C(N1C([C@@]2(C(=O)N(c3c(nc(c4c(c(c(c(c34)[H])[H])[H])[H])[H])[H])C([C@@]2(C(OC(C([H])([H])[H])(C([H])([H])[H])[H])([H])[H])[H])([H])[H])c2c(c(Cl)c(c(c2C1=O)[H])[H])[H])([H])[H])([H])[H])[H])([H])([H])[H]

>  <h>  (93) 
<NA>

>  <Training>  (93) 
True

>  <Success>  (93) 
True

>  <enamine_searched>  (93) 
False

>  <enamine_id>  (93) 
nan

$$$$

     RDKit          3D

 40 43  0  0  0  0  0  0  0  0999 V2000
  -12.6270   -3.7719  -20.9917 C   0  0  0  0  0  0  0  0  0  0  0  0
  -11.5289   -2.8897  -21.5895 C   0  0  2  0  0  0  0  0  0  0  0  0
  -12.0502   -2.3486  -22.9086 C   0  0  0  0  0  0  0  0  0  0  0  0
  -11.1659   -1.3990  -23.4477 O   0  0  0  0  0  0  0  0  0  0  0  0
   -9.8786   -1.9239  -23.6680 C   0  0  0  0  0  0  0  0  0  0  0  0
   -9.1768   -2.4429  -22.3961 C   0  0  1  0  0  0  0  0  0  0  0  0
  -10.1207   -3.4690  -21.7232 C   0  0  0  0  0  0  0  0  0  0  0  0
  -10.1119   -4.3821  -22.3312 H   0  0  0  0  0  0  0  0  0  0  0  0
   -9.7154   -3.7580  -20.7452 H   0  0  0  0  0  0  0  0  0  0  0  0
   -7.8975   -3.0308  -22.7521 N   0  0  0  0  0  0  0  0  0  0  0  0
   -6.8358   -2.5719  -22.0257 C   0  0  0  0  0  0  0  0  0  0  0  0
   -5.6786   -2.9207  -22.0781 O   0  0  0  0  0  0  0  0  0  0  0  0
   -7.3503   -1.5575  -21.2018 N   0  0  0  0  0  0  0  0  0  0  0  0
   -6.5921   -0.8939  -20.1998 C   0  0  0  0  0  0  0  0  0  0  0  0
   -6.9421   -1.0694  -18.8837 C   0  0  0  0  0  0  0  0  0  0  0  0
   -6.2673   -0.5470  -17.8305 N   0  0  0  0  0  0  0  0  0  0  0  0
   -5.2202    0.1896  -18.1116 C   0  0  0  0  0  0  0  0  0  0  0  0
   -4.7692    0.4771  -19.4291 C   0  0  0  0  0  0  0  0  0  0  0  0
   -3.6510    1.3180  -19.6413 C   0  0  0  0  0  0  0  0  0  0  0  0
   -3.2554    1.6332  -20.9106 C   0  0  0  0  0  0  0  0  0  0  0  0
   -3.9692    1.1285  -22.0184 C   0  0  0  0  0  0  0  0  0  0  0  0
   -5.0554    0.3079  -21.8420 C   0  0  0  0  0  0  0  0  0  0  0  0
   -5.4749   -0.0586  -20.5275 C   0  0  0  0  0  0  0  0  0  0  0  0
   -5.6001   -0.0485  -22.7119 H   0  0  0  0  0  0  0  0  0  0  0  0
   -3.6560    1.4093  -23.0195 H   0  0  0  0  0  0  0  0  0  0  0  0
   -2.4034    2.2851  -21.0669 H   0  0  0  0  0  0  0  0  0  0  0  0
   -3.1481    1.7172  -18.7671 H   0  0  0  0  0  0  0  0  0  0  0  0
   -4.6701    0.6129  -17.2730 H   0  0  0  0  0  0  0  0  0  0  0  0
   -7.8063   -1.6807  -18.6331 H   0  0  0  0  0  0  0  0  0  0  0  0
   -8.7015   -1.3131  -21.4583 C   0  0  0  0  0  0  0  0  0  0  0  0
   -9.3109   -0.3570  -21.0469 O   0  0  0  0  0  0  0  0  0  0  0  0
   -7.8208   -3.9083  -23.2398 H   0  0  0  0  0  0  0  0  0  0  0  0
   -9.2820   -1.1271  -24.1220 H   0  0  0  0  0  0  0  0  0  0  0  0
   -9.9269   -2.7849  -24.3563 H   0  0  0  0  0  0  0  0  0  0  0  0
  -13.0151   -1.8434  -22.7599 H   0  0  0  0  0  0  0  0  0  0  0  0
  -12.2109   -3.1867  -23.6100 H   0  0  0  0  0  0  0  0  0  0  0  0
  -11.3648   -2.0279  -20.9542 H   0  0  0  0  0  0  0  0  0  0  0  0
  -12.3060   -4.4471  -20.1936 H   0  0  0  0  0  0  0  0  0  0  0  0
  -13.1143   -4.3957  -21.7500 H   0  0  0  0  0  0  0  0  0  0  0  0
  -13.3698   -3.1018  -20.5443 H   0  0  0  0  0  0  0  0  0  0  0  0
  1  2  1  0
  2  3  1  0
  3  4  1  0
  4  5  1  0
  5  6  1  0
  6  7  1  0
  7  8  1  0
  7  9  1  0
  6 10  1  6
 10 11  1  0
 11 12  2  0
 11 13  1  0
 13 14  1  0
 14 15  2  0
 15 16  1  0
 16 17  2  0
 17 18  1  0
 18 19  2  0
 19 20  1  0
 20 21  2  0
 21 22  1  0
 22 23  2  0
 22 24  1  0
 21 25  1  0
 20 26  1  0
 19 27  1  0
 17 28  1  0
 15 29  1  0
 13 30  1  0
 30 31  2  0
 10 32  1  0
  5 33  1  0
  5 34  1  0
  3 35  1  0
  3 36  1  0
  2 37  1  1
  1 38  1  0
  1 39  1  0
  1 40  1  0
  7  2  1  0
 23 14  1  0
 30  6  1  0
 23 18  1  0
M  END
>  <cnnaffinities>  (94) 
[5.42695, 5.13432]

>  <score>  (94) 
5.42695

>  <index>  (94) 
97

>  <Smiles>  (94) 
C([C@@]1(C(OC([C@@]2(C1([H])[H])N(C(=O)N(c1c(nc(c3c(c(c(c(c13)[H])[H])[H])[H])[H])[H])C2=O)[H])([H])[H])([H])[H])[H])([H])([H])[H]

>  <h>  (94) 
<NA>

>  <Training>  (94) 
True

>  <Success>  (94) 
True

>  <enamine_searched>  (94) 
False

>  <enamine_id>  (94) 
nan

$$$$
