
     RDKit          3D

 66 71  0  0  0  0  0  0  0  0999 V2000
   -7.8238   -6.0349  -26.6877 C   0  0  0  0  0  0  0  0  0  0  0  0
   -8.0787   -4.6267  -26.9362 N   0  0  0  0  0  0  0  0  0  0  0  0
   -7.1600   -3.7043  -26.5625 C   0  0  0  0  0  0  0  0  0  0  0  0
   -6.1106   -3.9953  -26.0020 O   0  0  0  0  0  0  0  0  0  0  0  0
   -7.5768   -2.2516  -26.8095 C   0  0  0  0  0  0  0  0  0  0  0  0
   -8.4634   -1.8061  -25.7383 N   0  0  0  0  0  0  0  0  0  0  0  0
   -7.9038   -1.3171  -24.4856 C   0  0  0  0  0  0  0  0  0  0  0  0
   -8.7791   -1.5807  -23.2215 C   0  0  2  0  0  0  0  0  0  0  0  0
   -8.1958   -0.6415  -22.1307 C   0  0  0  0  0  0  0  0  0  0  0  0
   -8.3301    0.5579  -22.0543 O   0  0  0  0  0  0  0  0  0  0  0  0
   -7.4163   -1.4036  -21.2748 N   0  0  0  0  0  0  0  0  0  0  0  0
   -6.5129   -0.9484  -20.2790 C   0  0  0  0  0  0  0  0  0  0  0  0
   -6.7047   -1.3641  -18.9807 C   0  0  0  0  0  0  0  0  0  0  0  0
   -5.8086   -1.2163  -17.9805 N   0  0  0  0  0  0  0  0  0  0  0  0
   -4.6827   -0.6130  -18.2630 C   0  0  0  0  0  0  0  0  0  0  0  0
   -4.3678   -0.0801  -19.5414 C   0  0  0  0  0  0  0  0  0  0  0  0
   -3.1483    0.6082  -19.7782 C   0  0  0  0  0  0  0  0  0  0  0  0
   -2.8659    1.1296  -21.0098 C   0  0  0  0  0  0  0  0  0  0  0  0
   -3.7742    0.9387  -22.0776 C   0  0  0  0  0  0  0  0  0  0  0  0
   -4.9463    0.2502  -21.8822 C   0  0  0  0  0  0  0  0  0  0  0  0
   -5.2975   -0.2496  -20.5948 C   0  0  0  0  0  0  0  0  0  0  0  0
   -5.6042    0.0560  -22.7268 H   0  0  0  0  0  0  0  0  0  0  0  0
   -3.5567    1.3758  -23.0489 H   0  0  0  0  0  0  0  0  0  0  0  0
   -1.9463    1.6886  -21.1744 H   0  0  0  0  0  0  0  0  0  0  0  0
   -2.4723    0.7544  -18.9432 H   0  0  0  0  0  0  0  0  0  0  0  0
   -3.9541   -0.5139  -17.4605 H   0  0  0  0  0  0  0  0  0  0  0  0
   -7.6236   -1.8752  -18.6955 H   0  0  0  0  0  0  0  0  0  0  0  0
   -7.3782   -2.8057  -21.6234 C   0  0  0  0  0  0  0  0  0  0  0  0
   -8.5843   -2.9726  -22.5384 C   0  0  2  0  0  0  0  0  0  0  0  0
   -8.4836   -4.1642  -23.4912 C   0  0  0  0  0  0  0  0  0  0  0  0
   -8.4355   -5.4693  -22.8500 N   0  0  0  0  0  0  0  0  0  0  0  0
   -7.2748   -6.0052  -22.3650 C   0  0  0  0  0  0  0  0  0  0  0  0
   -6.0225   -5.7161  -22.9370 C   0  0  0  0  0  0  0  0  0  0  0  0
   -4.9332   -6.2784  -22.3037 C   0  0  0  0  0  0  0  0  0  0  0  0
   -5.0202   -7.0463  -21.2118 N   0  0  0  0  0  0  0  0  0  0  0  0
   -6.2531   -7.2727  -20.7897 C   0  0  0  0  0  0  0  0  0  0  0  0
   -7.3912   -6.8440  -21.3217 N   0  0  0  0  0  0  0  0  0  0  0  0
   -6.3344   -7.8667  -19.8778 H   0  0  0  0  0  0  0  0  0  0  0  0
   -3.9204   -6.0996  -22.6559 H   0  0  0  0  0  0  0  0  0  0  0  0
   -5.9153   -5.0891  -23.8236 H   0  0  0  0  0  0  0  0  0  0  0  0
   -9.2327   -5.6890  -22.2715 H   0  0  0  0  0  0  0  0  0  0  0  0
   -9.3541   -4.1348  -24.1543 H   0  0  0  0  0  0  0  0  0  0  0  0
   -7.5887   -4.0561  -24.0988 H   0  0  0  0  0  0  0  0  0  0  0  0
   -9.4701   -3.1096  -21.9009 H   0  0  0  0  0  0  0  0  0  0  0  0
   -7.4357   -3.3989  -20.7179 H   0  0  0  0  0  0  0  0  0  0  0  0
   -6.4354   -3.0828  -22.1222 H   0  0  0  0  0  0  0  0  0  0  0  0
  -10.2391   -1.3358  -23.5577 C   0  0  0  0  0  0  0  0  0  0  0  0
  -11.1959   -1.1611  -22.5428 C   0  0  0  0  0  0  0  0  0  0  0  0
  -12.5336   -1.0045  -22.8828 C   0  0  0  0  0  0  0  0  0  0  0  0
  -13.7619   -0.9018  -21.6529 Cl  0  0  0  0  0  0  0  0  0  0  0  0
  -12.9570   -0.9593  -24.2097 C   0  0  0  0  0  0  0  0  0  0  0  0
  -12.0195   -1.1394  -25.2043 C   0  0  0  0  0  0  0  0  0  0  0  0
  -10.6909   -1.3989  -24.8823 C   0  0  0  0  0  0  0  0  0  0  0  0
   -9.7988   -1.8515  -25.9910 C   0  0  0  0  0  0  0  0  0  0  0  0
  -10.2341   -2.2745  -27.0600 O   0  0  0  0  0  0  0  0  0  0  0  0
  -12.2949   -1.1100  -26.2514 H   0  0  0  0  0  0  0  0  0  0  0  0
  -14.0106   -0.8336  -24.4326 H   0  0  0  0  0  0  0  0  0  0  0  0
  -10.9056   -1.1620  -21.4958 H   0  0  0  0  0  0  0  0  0  0  0  0
   -7.7437   -0.2328  -24.5444 H   0  0  0  0  0  0  0  0  0  0  0  0
   -6.9178   -1.7809  -24.3632 H   0  0  0  0  0  0  0  0  0  0  0  0
   -6.6817   -1.6258  -26.8601 H   0  0  0  0  0  0  0  0  0  0  0  0
   -8.1419   -2.1701  -27.7425 H   0  0  0  0  0  0  0  0  0  0  0  0
   -8.9920   -4.3150  -27.2407 H   0  0  0  0  0  0  0  0  0  0  0  0
   -7.5307   -6.1996  -25.6411 H   0  0  0  0  0  0  0  0  0  0  0  0
   -8.7246   -6.6108  -26.9122 H   0  0  0  0  0  0  0  0  0  0  0  0
   -7.0001   -6.3912  -27.3137 H   0  0  0  0  0  0  0  0  0  0  0  0
  1  2  1  0
  2  3  1  0
  3  4  2  0
  3  5  1  0
  5  6  1  0
  6  7  1  0
  8  7  1  6
  8  9  1  0
  9 10  2  0
  9 11  1  0
 11 12  1  0
 12 13  2  0
 13 14  1  0
 14 15  2  0
 15 16  1  0
 16 17  2  0
 17 18  1  0
 18 19  2  0
 19 20  1  0
 20 21  2  0
 20 22  1  0
 19 23  1  0
 18 24  1  0
 17 25  1  0
 15 26  1  0
 13 27  1  0
 11 28  1  0
 28 29  1  0
 29 30  1  0
 30 31  1  0
 31 32  1  0
 32 33  2  0
 33 34  1  0
 34 35  2  0
 35 36  1  0
 36 37  2  0
 36 38  1  0
 34 39  1  0
 33 40  1  0
 31 41  1  0
 30 42  1  0
 30 43  1  0
 29 44  1  1
 28 45  1  0
 28 46  1  0
  8 47  1  0
 47 48  2  0
 48 49  1  0
 49 50  1  0
 49 51  2  0
 51 52  1  0
 52 53  2  0
 53 54  1  0
 54 55  2  0
 52 56  1  0
 51 57  1  0
 48 58  1  0
  7 59  1  0
  7 60  1  0
  5 61  1  0
  5 62  1  0
  2 63  1  0
  1 64  1  0
  1 65  1  0
  1 66  1  0
 54  6  1  0
 29  8  1  0
 37 32  1  0
 53 47  1  0
 21 12  1  0
 21 16  1  0
M  END
>  <cnnaffinities>  (1) 
[6.73147, 6.68697, 7.19985]

>  <score>  (1) 
6.73147

>  <index>  (1) 
0

>  <Smiles>  (1) 
C(N(C(=O)C(N1C([C@@]2(C(=O)N(c3c(nc(c4c(c(c(c(c34)[H])[H])[H])[H])[H])[H])C([C@@]2(C(N(c2c(c(nc(n2)[H])[H])[H])[H])([H])[H])[H])([H])[H])c2c(c(Cl)c(c(c2C1=O)[H])[H])[H])([H])[H])([H])[H])[H])([H])([H])[H]

>  <h>  (1) 
<NA>

>  <Training>  (1) 
True

>  <Success>  (1) 
True

>  <enamine_searched>  (1) 
False

>  <enamine_id>  (1) 
nan

$$$$

     RDKit          3D

 68 73  0  0  0  0  0  0  0  0999 V2000
   -7.2975    3.4621  -21.9386 C   0  0  0  0  0  0  0  0  0  0  0  0
   -8.2866    2.9090  -22.8462 N   0  0  0  0  0  0  0  0  0  0  0  0
   -7.8797    2.2281  -23.9479 C   0  0  0  0  0  0  0  0  0  0  0  0
   -6.6968    2.0561  -24.2161 O   0  0  0  0  0  0  0  0  0  0  0  0
   -9.0029    1.6767  -24.8322 C   0  0  0  0  0  0  0  0  0  0  0  0
   -9.6080    0.5014  -24.2248 N   0  0  0  0  0  0  0  0  0  0  0  0
   -8.7728   -0.6756  -24.0479 C   0  0  0  0  0  0  0  0  0  0  0  0
   -9.1076   -1.4751  -22.7526 C   0  0  2  0  0  0  0  0  0  0  0  0
   -8.5714   -0.7020  -21.5103 C   0  0  0  0  0  0  0  0  0  0  0  0
   -9.0493    0.2903  -21.0101 O   0  0  0  0  0  0  0  0  0  0  0  0
   -7.4190   -1.3287  -21.0834 N   0  0  0  0  0  0  0  0  0  0  0  0
   -6.5298   -0.8770  -20.0873 C   0  0  0  0  0  0  0  0  0  0  0  0
   -6.6862   -1.2955  -18.7905 C   0  0  0  0  0  0  0  0  0  0  0  0
   -5.7344   -1.1613  -17.8401 N   0  0  0  0  0  0  0  0  0  0  0  0
   -4.6243   -0.5498  -18.1689 C   0  0  0  0  0  0  0  0  0  0  0  0
   -4.3617   -0.0092  -19.4599 C   0  0  0  0  0  0  0  0  0  0  0  0
   -3.1528    0.6659  -19.7762 C   0  0  0  0  0  0  0  0  0  0  0  0
   -2.9404    1.1784  -21.0246 C   0  0  0  0  0  0  0  0  0  0  0  0
   -3.9199    1.0199  -22.0347 C   0  0  0  0  0  0  0  0  0  0  0  0
   -5.0848    0.3420  -21.7641 C   0  0  0  0  0  0  0  0  0  0  0  0
   -5.3443   -0.1718  -20.4593 C   0  0  0  0  0  0  0  0  0  0  0  0
   -5.8124    0.1965  -22.5587 H   0  0  0  0  0  0  0  0  0  0  0  0
   -3.7694    1.4664  -23.0143 H   0  0  0  0  0  0  0  0  0  0  0  0
   -2.0166    1.7062  -21.2492 H   0  0  0  0  0  0  0  0  0  0  0  0
   -2.4249    0.8104  -18.9841 H   0  0  0  0  0  0  0  0  0  0  0  0
   -3.8620   -0.4683  -17.3961 H   0  0  0  0  0  0  0  0  0  0  0  0
   -7.5980   -1.8074  -18.4855 H   0  0  0  0  0  0  0  0  0  0  0  0
   -7.0053   -2.4511  -21.8806 C   0  0  0  0  0  0  0  0  0  0  0  0
   -8.2735   -2.7958  -22.6505 C   0  0  2  0  0  0  0  0  0  0  0  0
   -7.9269   -3.5017  -23.9369 C   0  0  0  0  0  0  0  0  0  0  0  0
   -9.1195   -4.0285  -24.5429 N   0  0  0  0  0  0  0  0  0  0  0  0
   -8.9718   -4.5228  -25.8274 C   0  0  0  0  0  0  0  0  0  0  0  0
   -7.7637   -4.7863  -26.5256 C   0  0  0  0  0  0  0  0  0  0  0  0
   -8.0006   -5.3285  -27.7140 N   0  0  0  0  0  0  0  0  0  0  0  0
   -9.3246   -5.4265  -27.7789 N   0  0  0  0  0  0  0  0  0  0  0  0
   -9.9798   -5.9608  -28.9347 C   0  0  0  0  0  0  0  0  0  0  0  0
  -10.7287   -5.2316  -29.2492 H   0  0  0  0  0  0  0  0  0  0  0  0
  -10.4713   -6.9139  -28.7045 H   0  0  0  0  0  0  0  0  0  0  0  0
   -9.2211   -6.0991  -29.7065 H   0  0  0  0  0  0  0  0  0  0  0  0
   -9.9653   -4.9516  -26.6845 C   0  0  0  0  0  0  0  0  0  0  0  0
  -11.0519   -4.9842  -26.6343 H   0  0  0  0  0  0  0  0  0  0  0  0
   -6.7430   -4.6226  -26.2021 H   0  0  0  0  0  0  0  0  0  0  0  0
   -9.9616   -3.4690  -24.4093 H   0  0  0  0  0  0  0  0  0  0  0  0
   -7.3720   -2.8141  -24.6030 H   0  0  0  0  0  0  0  0  0  0  0  0
   -7.2394   -4.3359  -23.7484 H   0  0  0  0  0  0  0  0  0  0  0  0
   -8.8513   -3.4900  -22.0342 H   0  0  0  0  0  0  0  0  0  0  0  0
   -6.1560   -2.1931  -22.5377 H   0  0  0  0  0  0  0  0  0  0  0  0
   -6.6658   -3.2732  -21.2389 H   0  0  0  0  0  0  0  0  0  0  0  0
  -10.6223   -1.6525  -22.6894 C   0  0  0  0  0  0  0  0  0  0  0  0
  -11.2120   -2.6498  -21.8962 C   0  0  0  0  0  0  0  0  0  0  0  0
  -12.5900   -2.7210  -21.7693 C   0  0  0  0  0  0  0  0  0  0  0  0
  -13.2981   -3.8928  -20.7008 Cl  0  0  0  0  0  0  0  0  0  0  0  0
  -13.4382   -1.8469  -22.4425 C   0  0  0  0  0  0  0  0  0  0  0  0
  -12.8703   -0.8621  -23.2223 C   0  0  0  0  0  0  0  0  0  0  0  0
  -11.4844   -0.7439  -23.3288 C   0  0  0  0  0  0  0  0  0  0  0  0
  -10.9678    0.4343  -24.1005 C   0  0  0  0  0  0  0  0  0  0  0  0
  -11.7190    1.2889  -24.5572 O   0  0  0  0  0  0  0  0  0  0  0  0
  -13.4823   -0.1414  -23.7523 H   0  0  0  0  0  0  0  0  0  0  0  0
  -14.5138   -1.9308  -22.3318 H   0  0  0  0  0  0  0  0  0  0  0  0
  -10.6179   -3.3686  -21.3431 H   0  0  0  0  0  0  0  0  0  0  0  0
   -7.7373   -0.3277  -24.0100 H   0  0  0  0  0  0  0  0  0  0  0  0
   -8.8805   -1.3223  -24.9312 H   0  0  0  0  0  0  0  0  0  0  0  0
   -9.8100    2.4034  -24.9650 H   0  0  0  0  0  0  0  0  0  0  0  0
   -8.5746    1.4538  -25.8188 H   0  0  0  0  0  0  0  0  0  0  0  0
   -9.2309    2.7837  -22.5087 H   0  0  0  0  0  0  0  0  0  0  0  0
   -6.6193    4.1124  -22.4965 H   0  0  0  0  0  0  0  0  0  0  0  0
   -7.8089    4.0478  -21.1708 H   0  0  0  0  0  0  0  0  0  0  0  0
   -6.6906    2.6774  -21.4644 H   0  0  0  0  0  0  0  0  0  0  0  0
  1  2  1  0
  2  3  1  0
  3  4  2  0
  3  5  1  0
  5  6  1  0
  6  7  1  0
  8  7  1  6
  8  9  1  0
  9 10  2  0
  9 11  1  0
 11 12  1  0
 12 13  2  0
 13 14  1  0
 14 15  2  0
 15 16  1  0
 16 17  2  0
 17 18  1  0
 18 19  2  0
 19 20  1  0
 20 21  2  0
 20 22  1  0
 19 23  1  0
 18 24  1  0
 17 25  1  0
 15 26  1  0
 13 27  1  0
 11 28  1  0
 28 29  1  0
 29 30  1  0
 30 31  1  0
 31 32  1  0
 32 33  1  0
 33 34  2  0
 34 35  1  0
 35 36  1  0
 36 37  1  0
 36 38  1  0
 36 39  1  0
 35 40  1  0
 40 41  1  0
 33 42  1  0
 31 43  1  0
 30 44  1  0
 30 45  1  0
 29 46  1  1
 28 47  1  0
 28 48  1  0
  8 49  1  0
 49 50  2  0
 50 51  1  0
 51 52  1  0
 51 53  2  0
 53 54  1  0
 54 55  2  0
 55 56  1  0
 56 57  2  0
 54 58  1  0
 53 59  1  0
 50 60  1  0
  7 61  1  0
  7 62  1  0
  5 63  1  0
  5 64  1  0
  2 65  1  0
  1 66  1  0
  1 67  1  0
  1 68  1  0
 56  6  1  0
 29  8  1  0
 40 32  2  0
 55 49  1  0
 21 12  1  0
 21 16  1  0
M  END
>  <cnnaffinities>  (2) 
[6.54395]

>  <score>  (2) 
6.54395

>  <index>  (2) 
1

>  <Smiles>  (2) 
C(N(C(=O)C(N1C([C@@]2(C(=O)N(c3c(nc(c4c(c(c(c(c34)[H])[H])[H])[H])[H])[H])C([C@@]2(C(N(c2c(nn(C([H])([H])[H])c2[H])[H])[H])([H])[H])[H])([H])[H])c2c(c(Cl)c(c(c2C1=O)[H])[H])[H])([H])[H])([H])[H])[H])([H])([H])[H]

>  <h>  (2) 
<NA>

>  <Training>  (2) 
True

>  <Success>  (2) 
True

>  <enamine_searched>  (2) 
False

>  <enamine_id>  (2) 
nan

$$$$

     RDKit          3D

 60 65  0  0  0  0  0  0  0  0999 V2000
   -5.8510    1.9455  -29.9340 C   0  0  0  0  0  0  0  0  0  0  0  0
   -6.3179    0.7791  -29.1150 C   0  0  0  0  0  0  0  0  0  0  0  0
   -5.6587    0.4168  -27.9365 C   0  0  0  0  0  0  0  0  0  0  0  0
   -6.0834   -0.5838  -27.1696 N   0  0  0  0  0  0  0  0  0  0  0  0
   -7.1726   -1.2395  -27.5860 C   0  0  0  0  0  0  0  0  0  0  0  0
   -7.6754   -2.3658  -26.7273 C   0  0  0  0  0  0  0  0  0  0  0  0
   -8.5472   -1.9236  -25.6499 N   0  0  0  0  0  0  0  0  0  0  0  0
   -7.9411   -1.2826  -24.4933 C   0  0  0  0  0  0  0  0  0  0  0  0
   -8.7295   -1.5411  -23.1965 C   0  0  2  0  0  0  0  0  0  0  0  0
   -8.1396   -0.6057  -22.1178 C   0  0  0  0  0  0  0  0  0  0  0  0
   -8.2539    0.6000  -22.0645 O   0  0  0  0  0  0  0  0  0  0  0  0
   -7.4196   -1.3711  -21.2290 N   0  0  0  0  0  0  0  0  0  0  0  0
   -6.5232   -0.9273  -20.2305 C   0  0  0  0  0  0  0  0  0  0  0  0
   -6.7699   -1.2530  -18.9211 C   0  0  0  0  0  0  0  0  0  0  0  0
   -5.9568   -0.9624  -17.8812 N   0  0  0  0  0  0  0  0  0  0  0  0
   -4.8455   -0.3273  -18.1560 C   0  0  0  0  0  0  0  0  0  0  0  0
   -4.4668    0.0727  -19.4712 C   0  0  0  0  0  0  0  0  0  0  0  0
   -3.3020    0.8570  -19.7104 C   0  0  0  0  0  0  0  0  0  0  0  0
   -3.0366    1.3394  -20.9593 C   0  0  0  0  0  0  0  0  0  0  0  0
   -3.8544    0.9748  -22.0536 C   0  0  0  0  0  0  0  0  0  0  0  0
   -4.9449    0.1669  -21.8694 C   0  0  0  0  0  0  0  0  0  0  0  0
   -5.3163   -0.2409  -20.5552 C   0  0  0  0  0  0  0  0  0  0  0  0
   -5.5983   -0.0665  -22.7062 H   0  0  0  0  0  0  0  0  0  0  0  0
   -3.6431    1.3579  -23.0461 H   0  0  0  0  0  0  0  0  0  0  0  0
   -2.2307    2.0504  -21.1196 H   0  0  0  0  0  0  0  0  0  0  0  0
   -2.6709    1.1107  -18.8624 H   0  0  0  0  0  0  0  0  0  0  0  0
   -4.2002   -0.0710  -17.3165 H   0  0  0  0  0  0  0  0  0  0  0  0
   -7.7123   -1.7310  -18.6706 H   0  0  0  0  0  0  0  0  0  0  0  0
   -7.3959   -2.7711  -21.5506 C   0  0  0  0  0  0  0  0  0  0  0  0
   -8.5300   -2.9560  -22.5544 C   0  0  2  0  0  0  0  0  0  0  0  0
   -8.2823   -4.1176  -23.5087 C   0  0  0  0  0  0  0  0  0  0  0  0
   -8.2077   -5.0634  -22.9648 H   0  0  0  0  0  0  0  0  0  0  0  0
   -9.0875   -4.2064  -24.2403 H   0  0  0  0  0  0  0  0  0  0  0  0
   -7.3433   -3.9865  -24.0579 H   0  0  0  0  0  0  0  0  0  0  0  0
   -9.4463   -3.1601  -21.9810 H   0  0  0  0  0  0  0  0  0  0  0  0
   -6.4154   -3.0486  -21.9603 H   0  0  0  0  0  0  0  0  0  0  0  0
   -7.5304   -3.3195  -20.6253 H   0  0  0  0  0  0  0  0  0  0  0  0
  -10.1845   -1.2585  -23.4874 C   0  0  0  0  0  0  0  0  0  0  0  0
  -11.0362   -0.9602  -22.4226 C   0  0  0  0  0  0  0  0  0  0  0  0
  -12.3774   -0.7525  -22.6869 C   0  0  0  0  0  0  0  0  0  0  0  0
  -13.2208   -0.4709  -21.6845 F   0  0  0  0  0  0  0  0  0  0  0  0
  -12.9178   -0.8369  -23.9651 C   0  0  0  0  0  0  0  0  0  0  0  0
  -12.0768   -1.1603  -25.0121 C   0  0  0  0  0  0  0  0  0  0  0  0
  -10.7214   -1.3747  -24.7747 C   0  0  0  0  0  0  0  0  0  0  0  0
   -9.8767   -1.7861  -25.9301 C   0  0  0  0  0  0  0  0  0  0  0  0
  -10.3512   -2.0188  -27.0383 O   0  0  0  0  0  0  0  0  0  0  0  0
  -12.4282   -1.2632  -26.0342 H   0  0  0  0  0  0  0  0  0  0  0  0
  -13.9806   -0.6584  -24.0901 H   0  0  0  0  0  0  0  0  0  0  0  0
  -10.6335   -0.8981  -21.4162 H   0  0  0  0  0  0  0  0  0  0  0  0
   -6.9151   -1.6511  -24.3941 H   0  0  0  0  0  0  0  0  0  0  0  0
   -7.8872   -0.1947  -24.6406 H   0  0  0  0  0  0  0  0  0  0  0  0
   -8.2524   -3.0792  -27.3200 H   0  0  0  0  0  0  0  0  0  0  0  0
   -6.8138   -2.8650  -26.2735 H   0  0  0  0  0  0  0  0  0  0  0  0
   -7.8204   -0.8935  -28.7689 C   0  0  0  0  0  0  0  0  0  0  0  0
   -7.3912    0.1097  -29.5394 N   0  0  0  0  0  0  0  0  0  0  0  0
   -8.6988   -1.4510  -29.0982 H   0  0  0  0  0  0  0  0  0  0  0  0
   -4.7666    0.9514  -27.6067 H   0  0  0  0  0  0  0  0  0  0  0  0
   -4.7808    1.8776  -30.1499 H   0  0  0  0  0  0  0  0  0  0  0  0
   -6.4007    1.9822  -30.8742 H   0  0  0  0  0  0  0  0  0  0  0  0
   -6.0145    2.8891  -29.4025 H   0  0  0  0  0  0  0  0  0  0  0  0
  1  2  1  0
  2  3  2  0
  3  4  1  0
  4  5  2  0
  5  6  1  0
  6  7  1  0
  7  8  1  0
  9  8  1  6
  9 10  1  0
 10 11  2  0
 10 12  1  0
 12 13  1  0
 13 14  2  0
 14 15  1  0
 15 16  2  0
 16 17  1  0
 17 18  2  0
 18 19  1  0
 19 20  2  0
 20 21  1  0
 21 22  2  0
 21 23  1  0
 20 24  1  0
 19 25  1  0
 18 26  1  0
 16 27  1  0
 14 28  1  0
 12 29  1  0
 29 30  1  0
 30 31  1  0
 31 32  1  0
 31 33  1  0
 31 34  1  0
 30 35  1  1
 29 36  1  0
 29 37  1  0
  9 38  1  0
 38 39  2  0
 39 40  1  0
 40 41  1  0
 40 42  2  0
 42 43  1  0
 43 44  2  0
 44 45  1  0
 45 46  2  0
 43 47  1  0
 42 48  1  0
 39 49  1  0
  8 50  1  0
  8 51  1  0
  6 52  1  0
  6 53  1  0
  5 54  1  0
 54 55  2  0
 54 56  1  0
  3 57  1  0
  1 58  1  0
  1 59  1  0
  1 60  1  0
 55  2  1  0
 45  7  1  0
 30  9  1  0
 44 38  1  0
 22 13  1  0
 22 17  1  0
M  END
>  <cnnaffinities>  (3) 
[6.70456, 6.65636]

>  <score>  (3) 
6.70456

>  <index>  (3) 
2

>  <Smiles>  (3) 
C(c1c(nc(C(N2C([C@@]3(C(=O)N(c4c(nc(c5c(c(c(c(c45)[H])[H])[H])[H])[H])[H])C([C@@]3(C([H])([H])[H])[H])([H])[H])c3c(c(F)c(c(c3C2=O)[H])[H])[H])([H])[H])([H])[H])c(n1)[H])[H])([H])([H])[H]

>  <h>  (3) 
<NA>

>  <Training>  (3) 
True

>  <Success>  (3) 
True

>  <enamine_searched>  (3) 
False

>  <enamine_id>  (3) 
nan

$$$$

     RDKit          3D

 66 70  0  0  0  0  0  0  0  0999 V2000
   -7.3980    3.2846  -21.9338 C   0  0  0  0  0  0  0  0  0  0  0  0
   -8.4070    2.7526  -22.8352 N   0  0  0  0  0  0  0  0  0  0  0  0
   -8.0040    2.0527  -23.9275 C   0  0  0  0  0  0  0  0  0  0  0  0
   -6.8185    1.8721  -24.1678 O   0  0  0  0  0  0  0  0  0  0  0  0
   -9.1027    1.4742  -24.8301 C   0  0  0  0  0  0  0  0  0  0  0  0
   -9.6687    0.2783  -24.2318 N   0  0  0  0  0  0  0  0  0  0  0  0
   -8.8272   -0.9026  -24.0996 C   0  0  0  0  0  0  0  0  0  0  0  0
   -9.1159   -1.6952  -22.7930 C   0  0  2  0  0  0  0  0  0  0  0  0
   -8.5579   -0.9132  -21.5683 C   0  0  0  0  0  0  0  0  0  0  0  0
   -9.0552    0.0427  -21.0111 O   0  0  0  0  0  0  0  0  0  0  0  0
   -7.3586   -1.4818  -21.2083 N   0  0  0  0  0  0  0  0  0  0  0  0
   -6.5254   -0.9667  -20.1864 C   0  0  0  0  0  0  0  0  0  0  0  0
   -6.7397   -1.3077  -18.8753 C   0  0  0  0  0  0  0  0  0  0  0  0
   -5.8453   -1.0869  -17.8809 N   0  0  0  0  0  0  0  0  0  0  0  0
   -4.7216   -0.4966  -18.1963 C   0  0  0  0  0  0  0  0  0  0  0  0
   -4.4095   -0.0216  -19.5002 C   0  0  0  0  0  0  0  0  0  0  0  0
   -3.2169    0.6981  -19.7697 C   0  0  0  0  0  0  0  0  0  0  0  0
   -2.9824    1.2165  -21.0138 C   0  0  0  0  0  0  0  0  0  0  0  0
   -3.9315    1.0274  -22.0467 C   0  0  0  0  0  0  0  0  0  0  0  0
   -5.0667    0.2856  -21.8254 C   0  0  0  0  0  0  0  0  0  0  0  0
   -5.3501   -0.2325  -20.5324 C   0  0  0  0  0  0  0  0  0  0  0  0
   -5.7640    0.0895  -22.6390 H   0  0  0  0  0  0  0  0  0  0  0  0
   -3.7676    1.4634  -23.0281 H   0  0  0  0  0  0  0  0  0  0  0  0
   -2.0958    1.8149  -21.2019 H   0  0  0  0  0  0  0  0  0  0  0  0
   -2.5401    0.8838  -18.9392 H   0  0  0  0  0  0  0  0  0  0  0  0
   -3.9923   -0.3516  -17.3985 H   0  0  0  0  0  0  0  0  0  0  0  0
   -7.6598   -1.8115  -18.5846 H   0  0  0  0  0  0  0  0  0  0  0  0
   -6.9644   -2.6307  -21.9973 C   0  0  0  0  0  0  0  0  0  0  0  0
   -8.2657   -3.0046  -22.7295 C   0  0  2  0  0  0  0  0  0  0  0  0
   -7.9793   -3.6849  -24.0612 C   0  0  0  0  0  0  0  0  0  0  0  0
   -7.2490   -4.8658  -23.8086 O   0  0  0  0  0  0  0  0  0  0  0  0
   -7.0562   -5.6800  -24.9560 C   0  0  0  0  0  0  0  0  0  0  0  0
   -5.6890   -6.3344  -24.8521 C   0  0  0  0  0  0  0  0  0  0  0  0
   -5.4998   -6.9514  -25.7363 H   0  0  0  0  0  0  0  0  0  0  0  0
   -4.8986   -5.5835  -24.7781 H   0  0  0  0  0  0  0  0  0  0  0  0
   -5.6416   -6.9744  -23.9667 H   0  0  0  0  0  0  0  0  0  0  0  0
   -8.1636   -6.7184  -25.0474 C   0  0  0  0  0  0  0  0  0  0  0  0
   -8.1252   -7.3795  -24.1771 H   0  0  0  0  0  0  0  0  0  0  0  0
   -9.1510   -6.2503  -25.0779 H   0  0  0  0  0  0  0  0  0  0  0  0
   -8.0440   -7.3183  -25.9534 H   0  0  0  0  0  0  0  0  0  0  0  0
   -7.0764   -5.0427  -25.8537 H   0  0  0  0  0  0  0  0  0  0  0  0
   -8.9200   -3.8990  -24.5944 H   0  0  0  0  0  0  0  0  0  0  0  0
   -7.3770   -3.0216  -24.7066 H   0  0  0  0  0  0  0  0  0  0  0  0
   -8.7929   -3.7264  -22.1020 H   0  0  0  0  0  0  0  0  0  0  0  0
   -6.1566   -2.3843  -22.7025 H   0  0  0  0  0  0  0  0  0  0  0  0
   -6.5886   -3.4436  -21.3663 H   0  0  0  0  0  0  0  0  0  0  0  0
  -10.6240   -1.8702  -22.6815 C   0  0  0  0  0  0  0  0  0  0  0  0
  -11.1841   -2.8356  -21.8329 C   0  0  0  0  0  0  0  0  0  0  0  0
  -12.5570   -2.9127  -21.6675 C   0  0  0  0  0  0  0  0  0  0  0  0
  -13.2237   -4.0072  -20.4894 Cl  0  0  0  0  0  0  0  0  0  0  0  0
  -13.4280   -2.0954  -22.3875 C   0  0  0  0  0  0  0  0  0  0  0  0
  -12.8896   -1.1407  -23.2223 C   0  0  0  0  0  0  0  0  0  0  0  0
  -11.5088   -0.9921  -23.3288 C   0  0  0  0  0  0  0  0  0  0  0  0
  -11.0246    0.1958  -24.0961 C   0  0  0  0  0  0  0  0  0  0  0  0
  -11.7933    1.0362  -24.5444 O   0  0  0  0  0  0  0  0  0  0  0  0
  -13.5214   -0.4636  -23.7882 H   0  0  0  0  0  0  0  0  0  0  0  0
  -14.4996   -2.1952  -22.2607 H   0  0  0  0  0  0  0  0  0  0  0  0
  -10.5646   -3.5235  -21.2669 H   0  0  0  0  0  0  0  0  0  0  0  0
   -8.9892   -1.5601  -24.9662 H   0  0  0  0  0  0  0  0  0  0  0  0
   -7.7845   -0.5720  -24.1082 H   0  0  0  0  0  0  0  0  0  0  0  0
   -8.6682    1.2556  -25.8141 H   0  0  0  0  0  0  0  0  0  0  0  0
   -9.9359    2.1656  -24.9904 H   0  0  0  0  0  0  0  0  0  0  0  0
   -9.3317    2.5918  -22.4664 H   0  0  0  0  0  0  0  0  0  0  0  0
   -6.6866    3.8968  -22.4923 H   0  0  0  0  0  0  0  0  0  0  0  0
   -7.8676    3.9232  -21.1847 H   0  0  0  0  0  0  0  0  0  0  0  0
   -6.8190    2.4805  -21.4590 H   0  0  0  0  0  0  0  0  0  0  0  0
  1  2  1  0
  2  3  1  0
  3  4  2  0
  3  5  1  0
  5  6  1  0
  6  7  1  0
  8  7  1  6
  8  9  1  0
  9 10  2  0
  9 11  1  0
 11 12  1  0
 12 13  2  0
 13 14  1  0
 14 15  2  0
 15 16  1  0
 16 17  2  0
 17 18  1  0
 18 19  2  0
 19 20  1  0
 20 21  2  0
 20 22  1  0
 19 23  1  0
 18 24  1  0
 17 25  1  0
 15 26  1  0
 13 27  1  0
 11 28  1  0
 28 29  1  0
 29 30  1  0
 30 31  1  0
 31 32  1  0
 32 33  1  0
 33 34  1  0
 33 35  1  0
 33 36  1  0
 32 37  1  0
 37 38  1  0
 37 39  1  0
 37 40  1  0
 32 41  1  0
 30 42  1  0
 30 43  1  0
 29 44  1  1
 28 45  1  0
 28 46  1  0
  8 47  1  0
 47 48  2  0
 48 49  1  0
 49 50  1  0
 49 51  2  0
 51 52  1  0
 52 53  2  0
 53 54  1  0
 54 55  2  0
 52 56  1  0
 51 57  1  0
 48 58  1  0
  7 59  1  0
  7 60  1  0
  5 61  1  0
  5 62  1  0
  2 63  1  0
  1 64  1  0
  1 65  1  0
  1 66  1  0
 54  6  1  0
 29  8  1  0
 53 47  1  0
 21 12  1  0
 21 16  1  0
M  END
>  <cnnaffinities>  (4) 
[6.65352, 6.67193, 6.35184, 6.73715, 7.01172, 7.06197, 6.58203, 6.64109]

>  <score>  (4) 
6.65352

>  <index>  (4) 
3

>  <Smiles>  (4) 
C(N(C(=O)C(N1C([C@@]2(C(=O)N(c3c(nc(c4c(c(c(c(c34)[H])[H])[H])[H])[H])[H])C([C@@]2(C(OC(C([H])([H])[H])(C([H])([H])[H])[H])([H])[H])[H])([H])[H])c2c(c(Cl)c(c(c2C1=O)[H])[H])[H])([H])[H])([H])[H])[H])([H])([H])[H]

>  <h>  (4) 
<NA>

>  <Training>  (4) 
True

>  <Success>  (4) 
True

>  <enamine_searched>  (4) 
False

>  <enamine_id>  (4) 
nan

$$$$

     RDKit          3D

 59 64  0  0  0  0  0  0  0  0999 V2000
   -7.4964   -3.5802  -23.7284 C   0  0  0  0  0  0  0  0  0  0  0  0
   -8.4466   -2.9569  -22.6970 C   0  0  1  0  0  0  0  0  0  0  0  0
   -7.7860   -2.8156  -21.3132 C   0  0  0  0  0  0  0  0  0  0  0  0
   -7.3974   -1.4196  -21.2329 N   0  0  0  0  0  0  0  0  0  0  0  0
   -6.4970   -0.9639  -20.2373 C   0  0  0  0  0  0  0  0  0  0  0  0
   -6.6983   -1.3400  -18.9285 C   0  0  0  0  0  0  0  0  0  0  0  0
   -5.8262   -1.1185  -17.9192 N   0  0  0  0  0  0  0  0  0  0  0  0
   -4.7206   -0.4821  -18.2032 C   0  0  0  0  0  0  0  0  0  0  0  0
   -4.3963    0.0009  -19.4989 C   0  0  0  0  0  0  0  0  0  0  0  0
   -3.1955    0.7244  -19.7329 C   0  0  0  0  0  0  0  0  0  0  0  0
   -2.9088    1.2153  -20.9764 C   0  0  0  0  0  0  0  0  0  0  0  0
   -3.7864    0.9509  -22.0535 C   0  0  0  0  0  0  0  0  0  0  0  0
   -4.9264    0.2078  -21.8611 C   0  0  0  0  0  0  0  0  0  0  0  0
   -5.2975   -0.2392  -20.5606 C   0  0  0  0  0  0  0  0  0  0  0  0
   -5.5553   -0.0585  -22.7052 H   0  0  0  0  0  0  0  0  0  0  0  0
   -3.5633    1.3480  -23.0387 H   0  0  0  0  0  0  0  0  0  0  0  0
   -2.0131    1.8083  -21.1465 H   0  0  0  0  0  0  0  0  0  0  0  0
   -2.5515    0.9317  -18.8849 H   0  0  0  0  0  0  0  0  0  0  0  0
   -4.0137   -0.3233  -17.3902 H   0  0  0  0  0  0  0  0  0  0  0  0
   -7.6073   -1.8641  -18.6368 H   0  0  0  0  0  0  0  0  0  0  0  0
   -8.1451   -0.6187  -22.0743 C   0  0  0  0  0  0  0  0  0  0  0  0
   -8.1359    0.5907  -22.0722 O   0  0  0  0  0  0  0  0  0  0  0  0
   -8.9781   -1.5287  -23.0207 C   0  0  1  0  0  0  0  0  0  0  0  0
   -8.7106   -1.1057  -24.4827 C   0  0  0  0  0  0  0  0  0  0  0  0
   -9.2440    0.2116  -24.7739 N   0  0  0  0  0  0  0  0  0  0  0  0
   -8.3681    1.1531  -25.4629 C   0  0  0  0  0  0  0  0  0  0  0  0
   -7.8417    0.6082  -26.7647 C   0  0  0  0  0  0  0  0  0  0  0  0
   -6.5758    0.4093  -27.0567 N   0  0  0  0  0  0  0  0  0  0  0  0
   -6.5731   -0.0660  -28.3459 C   0  0  0  0  0  0  0  0  0  0  0  0
   -7.8492   -0.1608  -28.8256 C   0  0  0  0  0  0  0  0  0  0  0  0
   -8.6625    0.2657  -27.7963 N   0  0  0  0  0  0  0  0  0  0  0  0
  -10.1136    0.2672  -27.7632 C   0  0  0  0  0  0  0  0  0  0  0  0
  -10.4984    1.2358  -27.4343 H   0  0  0  0  0  0  0  0  0  0  0  0
  -10.4808    0.0544  -28.7668 H   0  0  0  0  0  0  0  0  0  0  0  0
  -10.4885   -0.4989  -27.0791 H   0  0  0  0  0  0  0  0  0  0  0  0
   -8.2525   -0.4865  -29.7780 H   0  0  0  0  0  0  0  0  0  0  0  0
   -5.6449   -0.3189  -28.8425 H   0  0  0  0  0  0  0  0  0  0  0  0
   -7.4975    1.4019  -24.8365 H   0  0  0  0  0  0  0  0  0  0  0  0
   -8.9513    2.0669  -25.6270 H   0  0  0  0  0  0  0  0  0  0  0  0
  -10.5006    0.5824  -24.3938 C   0  0  0  0  0  0  0  0  0  0  0  0
  -11.0589    1.5859  -24.8312 O   0  0  0  0  0  0  0  0  0  0  0  0
  -11.1813   -0.3209  -23.4090 C   0  0  0  0  0  0  0  0  0  0  0  0
  -12.5522   -0.1433  -23.2010 C   0  0  0  0  0  0  0  0  0  0  0  0
  -13.2622   -1.0301  -22.4198 C   0  0  0  0  0  0  0  0  0  0  0  0
  -12.5763   -2.0776  -21.8222 C   0  0  0  0  0  0  0  0  0  0  0  0
  -13.2569   -2.9407  -21.0437 F   0  0  0  0  0  0  0  0  0  0  0  0
  -11.2171   -2.2519  -21.9765 C   0  0  0  0  0  0  0  0  0  0  0  0
  -10.4864   -1.3744  -22.7908 C   0  0  0  0  0  0  0  0  0  0  0  0
  -10.7634   -3.0930  -21.4659 H   0  0  0  0  0  0  0  0  0  0  0  0
  -14.3342   -0.9528  -22.2858 H   0  0  0  0  0  0  0  0  0  0  0  0
  -13.0422    0.7089  -23.6644 H   0  0  0  0  0  0  0  0  0  0  0  0
   -9.1714   -1.8448  -25.1515 H   0  0  0  0  0  0  0  0  0  0  0  0
   -7.6403   -1.0792  -24.6883 H   0  0  0  0  0  0  0  0  0  0  0  0
   -8.5013   -3.0623  -20.5172 H   0  0  0  0  0  0  0  0  0  0  0  0
   -6.9082   -3.4602  -21.2029 H   0  0  0  0  0  0  0  0  0  0  0  0
   -9.2893   -3.6474  -22.6413 H   0  0  0  0  0  0  0  0  0  0  0  0
   -7.9935   -3.7122  -24.6944 H   0  0  0  0  0  0  0  0  0  0  0  0
   -6.5967   -2.9786  -23.8916 H   0  0  0  0  0  0  0  0  0  0  0  0
   -7.1773   -4.5736  -23.3957 H   0  0  0  0  0  0  0  0  0  0  0  0
  1  2  1  0
  2  3  1  0
  3  4  1  0
  4  5  1  0
  5  6  2  0
  6  7  1  0
  7  8  2  0
  8  9  1  0
  9 10  2  0
 10 11  1  0
 11 12  2  0
 12 13  1  0
 13 14  2  0
 13 15  1  0
 12 16  1  0
 11 17  1  0
 10 18  1  0
  8 19  1  0
  6 20  1  0
  4 21  1  0
 21 22  2  0
 21 23  1  0
 23 24  1  6
 24 25  1  0
 25 26  1  0
 26 27  1  0
 27 28  2  0
 28 29  1  0
 29 30  2  0
 30 31  1  0
 31 32  1  0
 32 33  1  0
 32 34  1  0
 32 35  1  0
 30 36  1  0
 29 37  1  0
 26 38  1  0
 26 39  1  0
 25 40  1  0
 40 41  2  0
 40 42  1  0
 42 43  2  0
 43 44  1  0
 44 45  2  0
 45 46  1  0
 45 47  1  0
 47 48  2  0
 47 49  1  0
 44 50  1  0
 43 51  1  0
 24 52  1  0
 24 53  1  0
  3 54  1  0
  3 55  1  0
  2 56  1  1
  1 57  1  0
  1 58  1  0
  1 59  1  0
 23  2  1  0
 31 27  1  0
 48 42  1  0
 14  5  1  0
 48 23  1  0
 14  9  1  0
M  END
>  <cnnaffinities>  (5) 
[6.3778, 6.60659]

>  <score>  (5) 
6.3778

>  <index>  (5) 
4

>  <Smiles>  (5) 
C([C@]1(C(N(c2c(nc(c3c(c(c(c(c23)[H])[H])[H])[H])[H])[H])C(=O)[C@]21C(N(C(c1nc(c(n1C([H])([H])[H])[H])[H])([H])[H])C(=O)c1c(c(c(F)c(c21)[H])[H])[H])([H])[H])([H])[H])[H])([H])([H])[H]

>  <h>  (5) 
<NA>

>  <Training>  (5) 
True

>  <Success>  (5) 
True

>  <enamine_searched>  (5) 
False

>  <enamine_id>  (5) 
nan

$$$$

     RDKit          3D

 58 61  0  0  0  0  0  0  0  0999 V2000
   -5.7125   -3.2696  -23.5571 C   0  0  0  0  0  0  0  0  0  0  0  0
   -6.1145   -3.2244  -22.2917 C   0  0  0  0  0  0  0  0  0  0  0  0
   -7.4266   -2.8432  -21.6860 C   0  0  0  0  0  0  0  0  0  0  0  0
   -7.3627   -1.4574  -21.2320 N   0  0  0  0  0  0  0  0  0  0  0  0
   -8.1674   -0.4292  -21.7295 C   0  0  0  0  0  0  0  0  0  0  0  0
   -8.4200    0.5465  -21.0534 O   0  0  0  0  0  0  0  0  0  0  0  0
   -8.6557   -0.5976  -23.1672 C   0  0  2  0  0  0  0  0  0  0  0  0
   -8.4886    0.7088  -23.9599 C   0  0  0  0  0  0  0  0  0  0  0  0
   -8.8477    0.4526  -25.3433 N   0  0  0  0  0  0  0  0  0  0  0  0
   -7.9900    0.8277  -26.4559 C   0  0  0  0  0  0  0  0  0  0  0  0
   -7.0801   -0.3020  -26.9647 C   0  0  0  0  0  0  0  0  0  0  0  0
   -7.2707   -0.8600  -28.0324 O   0  0  0  0  0  0  0  0  0  0  0  0
   -6.0417   -0.6507  -26.1543 N   0  0  0  0  0  0  0  0  0  0  0  0
   -5.0973   -1.6581  -26.5992 C   0  0  0  0  0  0  0  0  0  0  0  0
   -4.5606   -1.3483  -27.5023 H   0  0  0  0  0  0  0  0  0  0  0  0
   -5.6198   -2.5902  -26.8374 H   0  0  0  0  0  0  0  0  0  0  0  0
   -4.3734   -1.8492  -25.8024 H   0  0  0  0  0  0  0  0  0  0  0  0
   -5.7945   -0.0817  -25.3604 H   0  0  0  0  0  0  0  0  0  0  0  0
   -8.6313    1.0962  -27.2956 H   0  0  0  0  0  0  0  0  0  0  0  0
   -7.3903    1.6992  -26.1660 H   0  0  0  0  0  0  0  0  0  0  0  0
  -10.0454   -0.1486  -25.6391 C   0  0  0  0  0  0  0  0  0  0  0  0
  -10.4972   -0.1937  -26.7735 O   0  0  0  0  0  0  0  0  0  0  0  0
  -10.7632   -0.7621  -24.4775 C   0  0  0  0  0  0  0  0  0  0  0  0
  -12.1081   -1.0837  -24.6415 C   0  0  0  0  0  0  0  0  0  0  0  0
  -12.7804   -1.7867  -23.6567 C   0  0  0  0  0  0  0  0  0  0  0  0
  -12.0897   -2.1579  -22.5066 C   0  0  0  0  0  0  0  0  0  0  0  0
  -12.9483   -3.0828  -21.3074 Cl  0  0  0  0  0  0  0  0  0  0  0  0
  -10.7594   -1.8059  -22.3072 C   0  0  0  0  0  0  0  0  0  0  0  0
  -10.0949   -1.0637  -23.2878 C   0  0  0  0  0  0  0  0  0  0  0  0
  -10.2505   -2.1190  -21.4003 H   0  0  0  0  0  0  0  0  0  0  0  0
  -13.8190   -2.0793  -23.7704 H   0  0  0  0  0  0  0  0  0  0  0  0
  -12.6088   -0.7634  -25.5494 H   0  0  0  0  0  0  0  0  0  0  0  0
   -9.1247    1.4869  -23.5165 H   0  0  0  0  0  0  0  0  0  0  0  0
   -7.4548    1.0635  -23.9190 H   0  0  0  0  0  0  0  0  0  0  0  0
   -8.0184   -1.3336  -23.6750 H   0  0  0  0  0  0  0  0  0  0  0  0
   -6.3990   -1.1571  -20.2325 C   0  0  0  0  0  0  0  0  0  0  0  0
   -6.5981   -1.5257  -18.9284 C   0  0  0  0  0  0  0  0  0  0  0  0
   -5.6753   -1.3837  -17.9493 N   0  0  0  0  0  0  0  0  0  0  0  0
   -4.5612   -0.7642  -18.2519 C   0  0  0  0  0  0  0  0  0  0  0  0
   -4.2709   -0.2275  -19.5368 C   0  0  0  0  0  0  0  0  0  0  0  0
   -3.0938    0.5250  -19.7938 C   0  0  0  0  0  0  0  0  0  0  0  0
   -2.8520    1.0442  -21.0341 C   0  0  0  0  0  0  0  0  0  0  0  0
   -3.7822    0.8428  -22.0743 C   0  0  0  0  0  0  0  0  0  0  0  0
   -4.9249    0.1107  -21.8554 C   0  0  0  0  0  0  0  0  0  0  0  0
   -5.1977   -0.4600  -20.5793 C   0  0  0  0  0  0  0  0  0  0  0  0
   -5.6408   -0.0154  -22.6652 H   0  0  0  0  0  0  0  0  0  0  0  0
   -3.5933    1.2792  -23.0505 H   0  0  0  0  0  0  0  0  0  0  0  0
   -1.9367    1.5990  -21.2299 H   0  0  0  0  0  0  0  0  0  0  0  0
   -2.3932    0.6796  -18.9821 H   0  0  0  0  0  0  0  0  0  0  0  0
   -3.8248   -0.6521  -17.4562 H   0  0  0  0  0  0  0  0  0  0  0  0
   -7.5487   -1.9585  -18.6143 H   0  0  0  0  0  0  0  0  0  0  0  0
   -8.2809   -2.9863  -22.3603 H   0  0  0  0  0  0  0  0  0  0  0  0
   -7.5675   -3.4517  -20.7985 H   0  0  0  0  0  0  0  0  0  0  0  0
   -5.0396   -3.5476  -21.2616 C   0  0  0  0  0  0  0  0  0  0  0  0
   -5.3597   -3.8286  -20.0934 O   0  0  0  0  0  0  0  0  0  0  0  0
   -3.8954   -3.5938  -21.7658 O   0  0  0  0  0  1  0  0  0  0  0  0
   -6.3698   -3.0446  -24.3945 H   0  0  0  0  0  0  0  0  0  0  0  0
   -4.6804   -3.5640  -23.7305 H   0  0  0  0  0  0  0  0  0  0  0  0
  1  2  2  0
  2  3  1  0
  3  4  1  0
  4  5  1  0
  5  6  2  0
  5  7  1  0
  7  8  1  0
  8  9  1  0
  9 10  1  0
 10 11  1  0
 11 12  2  0
 11 13  1  0
 13 14  1  0
 14 15  1  0
 14 16  1  0
 14 17  1  0
 13 18  1  0
 10 19  1  0
 10 20  1  0
  9 21  1  0
 21 22  2  0
 21 23  1  0
 23 24  2  0
 24 25  1  0
 25 26  2  0
 26 27  1  0
 26 28  1  0
 28 29  2  0
 28 30  1  0
 25 31  1  0
 24 32  1  0
  8 33  1  0
  8 34  1  0
  7 35  1  6
  4 36  1  0
 36 37  2  0
 37 38  1  0
 38 39  2  0
 39 40  1  0
 40 41  2  0
 41 42  1  0
 42 43  2  0
 43 44  1  0
 44 45  2  0
 44 46  1  0
 43 47  1  0
 42 48  1  0
 41 49  1  0
 39 50  1  0
 37 51  1  0
  3 52  1  0
  3 53  1  0
  2 54  1  0
 54 55  2  0
 54 56  1  0
  1 57  1  0
  1 58  1  0
 29  7  1  0
 45 36  1  0
 29 23  1  0
 45 40  1  0
M  CHG  1  56  -1
M  END
>  <cnnaffinities>  (6) 
[5.99353, 6.62571, 5.96507]

>  <score>  (6) 
5.99353

>  <index>  (6) 
5

>  <Smiles>  (6) 
C(=C(C(N(C(=O)[C@@]1(C(N(C(C(=O)N(C([H])([H])[H])[H])([H])[H])C(=O)c2c(c(c(Cl)c(c12)[H])[H])[H])([H])[H])[H])c1c(nc(c2c(c(c(c(c12)[H])[H])[H])[H])[H])[H])([H])[H])C(=O)[O-])([H])[H]

>  <h>  (6) 
<NA>

>  <Training>  (6) 
True

>  <Success>  (6) 
True

>  <enamine_searched>  (6) 
False

>  <enamine_id>  (6) 
nan

$$$$

     RDKit          3D

 43 45  0  0  0  0  0  0  0  0999 V2000
   -9.7263   -6.0169  -26.7187 C   0  0  0  0  0  0  0  0  0  0  0  0
   -9.4368   -6.4317  -25.2753 C   0  0  0  0  0  0  0  0  0  0  0  0
   -8.5334   -5.4495  -24.5133 C   0  0  0  0  0  0  0  0  0  0  0  0
   -8.0737   -6.0130  -23.1673 C   0  0  0  0  0  0  0  0  0  0  0  0
   -7.0826   -5.0760  -22.4988 C   0  0  0  0  0  0  0  0  0  0  0  0
   -7.6015   -3.7139  -22.4482 N   0  0  0  0  0  0  0  0  0  0  0  0
   -6.7963   -2.8188  -21.8138 C   0  0  0  0  0  0  0  0  0  0  0  0
   -5.6197   -3.0761  -21.6004 O   0  0  0  0  0  0  0  0  0  0  0  0
   -7.4096   -1.5137  -21.2930 C   0  0  0  0  0  0  0  0  0  0  0  0
   -6.5004   -0.9909  -20.2196 C   0  0  0  0  0  0  0  0  0  0  0  0
   -6.7551   -1.2709  -18.9037 C   0  0  0  0  0  0  0  0  0  0  0  0
   -5.9283   -0.9936  -17.8659 N   0  0  0  0  0  0  0  0  0  0  0  0
   -4.8170   -0.3569  -18.1449 C   0  0  0  0  0  0  0  0  0  0  0  0
   -4.4351    0.0336  -19.4583 C   0  0  0  0  0  0  0  0  0  0  0  0
   -3.2854    0.8278  -19.7078 C   0  0  0  0  0  0  0  0  0  0  0  0
   -3.0491    1.3389  -20.9572 C   0  0  0  0  0  0  0  0  0  0  0  0
   -3.8873    0.9769  -22.0366 C   0  0  0  0  0  0  0  0  0  0  0  0
   -4.9619    0.1487  -21.8382 C   0  0  0  0  0  0  0  0  0  0  0  0
   -5.3007   -0.2937  -20.5310 C   0  0  0  0  0  0  0  0  0  0  0  0
   -5.6218   -0.0895  -22.6666 H   0  0  0  0  0  0  0  0  0  0  0  0
   -3.6956    1.3819  -23.0270 H   0  0  0  0  0  0  0  0  0  0  0  0
   -2.2676    2.0760  -21.1125 H   0  0  0  0  0  0  0  0  0  0  0  0
   -2.6479    1.0940  -18.8681 H   0  0  0  0  0  0  0  0  0  0  0  0
   -4.1880   -0.0862  -17.2968 H   0  0  0  0  0  0  0  0  0  0  0  0
   -7.7108   -1.7120  -18.6245 H   0  0  0  0  0  0  0  0  0  0  0  0
   -8.3998   -1.7226  -20.8702 H   0  0  0  0  0  0  0  0  0  0  0  0
   -7.5751   -0.8071  -22.1189 H   0  0  0  0  0  0  0  0  0  0  0  0
   -8.9500   -3.4542  -22.9268 C   0  0  0  0  0  0  0  0  0  0  0  0
   -9.2027   -4.0704  -24.3127 C   0  0  0  0  0  0  0  0  0  0  0  0
   -8.8588   -3.3823  -25.0942 H   0  0  0  0  0  0  0  0  0  0  0  0
  -10.2910   -4.1618  -24.4239 H   0  0  0  0  0  0  0  0  0  0  0  0
   -9.0961   -2.3715  -22.9745 H   0  0  0  0  0  0  0  0  0  0  0  0
   -9.6853   -3.8560  -22.2144 H   0  0  0  0  0  0  0  0  0  0  0  0
   -6.8569   -5.4102  -21.4782 H   0  0  0  0  0  0  0  0  0  0  0  0
   -6.1264   -5.0478  -23.0344 H   0  0  0  0  0  0  0  0  0  0  0  0
   -7.5963   -6.9929  -23.2983 H   0  0  0  0  0  0  0  0  0  0  0  0
   -8.9420   -6.1590  -22.5125 H   0  0  0  0  0  0  0  0  0  0  0  0
   -7.6239   -5.3087  -25.1181 H   0  0  0  0  0  0  0  0  0  0  0  0
   -8.9608   -7.4200  -25.2656 H   0  0  0  0  0  0  0  0  0  0  0  0
  -10.3829   -6.5474  -24.7303 H   0  0  0  0  0  0  0  0  0  0  0  0
  -10.2690   -5.0668  -26.7644 H   0  0  0  0  0  0  0  0  0  0  0  0
   -8.7987   -5.8926  -27.2891 H   0  0  0  0  0  0  0  0  0  0  0  0
  -10.3337   -6.7632  -27.2424 H   0  0  0  0  0  0  0  0  0  0  0  0
  1  2  1  0
  2  3  1  0
  3  4  1  0
  4  5  1  0
  5  6  1  0
  6  7  1  0
  7  8  2  0
  7  9  1  0
  9 10  1  0
 10 11  2  0
 11 12  1  0
 12 13  2  0
 13 14  1  0
 14 15  2  0
 15 16  1  0
 16 17  2  0
 17 18  1  0
 18 19  2  0
 18 20  1  0
 17 21  1  0
 16 22  1  0
 15 23  1  0
 13 24  1  0
 11 25  1  0
  9 26  1  0
  9 27  1  0
  6 28  1  0
 28 29  1  0
 29 30  1  0
 29 31  1  0
 28 32  1  0
 28 33  1  0
  5 34  1  0
  5 35  1  0
  4 36  1  0
  4 37  1  0
  3 38  1  0
  2 39  1  0
  2 40  1  0
  1 41  1  0
  1 42  1  0
  1 43  1  0
 29  3  1  0
 19 10  1  0
 19 14  1  0
M  END
>  <cnnaffinities>  (7) 
[5.44005, 5.43997, 5.27631, 4.85211, 5.01715, 5.01715, 5.2696, 5.22271]

>  <score>  (7) 
5.44005

>  <index>  (7) 
6

>  <Smiles>  (7) 
C(C(C1(C(C(N(C(=O)C(c2c(nc(c3c(c(c(c(c23)[H])[H])[H])[H])[H])[H])([H])[H])C(C1([H])[H])([H])[H])([H])[H])([H])[H])[H])([H])[H])([H])([H])[H]

>  <h>  (7) 
<NA>

>  <Training>  (7) 
True

>  <Success>  (7) 
True

>  <enamine_searched>  (7) 
False

>  <enamine_id>  (7) 
nan

$$$$

     RDKit          3D

 44 47  0  0  0  0  0  0  0  0999 V2000
  -10.0830   -5.9826  -27.5613 C   0  0  0  0  0  0  0  0  0  0  0  0
   -8.9730   -5.3021  -26.7652 C   0  0  0  0  0  0  0  0  0  0  0  0
   -9.2921   -5.5346  -25.0212 S   0  0  0  0  0  0  0  0  0  0  0  0
   -9.1033   -6.9357  -24.6817 O   0  0  0  0  0  0  0  0  0  0  0  0
  -10.5504   -4.8616  -24.7238 O   0  0  0  0  0  0  0  0  0  0  0  0
   -8.0215   -4.7105  -24.2779 N   0  0  0  0  0  0  0  0  0  0  0  0
   -8.0795   -4.7030  -22.7836 C   0  0  0  0  0  0  0  0  0  0  0  0
   -8.0585   -3.1603  -22.7845 C   0  0  0  0  0  0  0  0  0  0  0  0
   -7.9995   -3.2292  -24.3292 C   0  0  0  0  0  0  0  0  0  0  0  0
   -7.0520   -2.8551  -24.7225 H   0  0  0  0  0  0  0  0  0  0  0  0
   -8.8489   -2.7533  -24.8286 H   0  0  0  0  0  0  0  0  0  0  0  0
   -6.8411   -2.5671  -22.1108 C   0  0  0  0  0  0  0  0  0  0  0  0
   -5.6903   -2.9216  -22.2161 O   0  0  0  0  0  0  0  0  0  0  0  0
   -7.3110   -1.5261  -21.3118 N   0  0  0  0  0  0  0  0  0  0  0  0
   -6.5198   -1.0011  -20.2604 C   0  0  0  0  0  0  0  0  0  0  0  0
   -6.8094   -1.2699  -18.9461 C   0  0  0  0  0  0  0  0  0  0  0  0
   -5.9830   -0.9697  -17.9123 N   0  0  0  0  0  0  0  0  0  0  0  0
   -4.8549   -0.3655  -18.1965 C   0  0  0  0  0  0  0  0  0  0  0  0
   -4.4853    0.0318  -19.5112 C   0  0  0  0  0  0  0  0  0  0  0  0
   -3.3272    0.8097  -19.7374 C   0  0  0  0  0  0  0  0  0  0  0  0
   -3.0823    1.3333  -20.9779 C   0  0  0  0  0  0  0  0  0  0  0  0
   -3.9466    1.0391  -22.0564 C   0  0  0  0  0  0  0  0  0  0  0  0
   -5.0455    0.2417  -21.8755 C   0  0  0  0  0  0  0  0  0  0  0  0
   -5.3412   -0.2750  -20.5834 C   0  0  0  0  0  0  0  0  0  0  0  0
   -5.7010    0.0077  -22.7103 H   0  0  0  0  0  0  0  0  0  0  0  0
   -3.7616    1.4786  -23.0334 H   0  0  0  0  0  0  0  0  0  0  0  0
   -2.2550    2.0183  -21.1295 H   0  0  0  0  0  0  0  0  0  0  0  0
   -2.6911    1.0156  -18.8821 H   0  0  0  0  0  0  0  0  0  0  0  0
   -4.1733   -0.1201  -17.3770 H   0  0  0  0  0  0  0  0  0  0  0  0
   -7.7433   -1.7586  -18.6785 H   0  0  0  0  0  0  0  0  0  0  0  0
   -8.6983   -1.3287  -21.4630 C   0  0  0  0  0  0  0  0  0  0  0  0
   -9.3450   -0.3972  -21.0447 O   0  0  0  0  0  0  0  0  0  0  0  0
   -9.1387   -2.4156  -22.1810 N   0  0  0  0  0  0  0  0  0  0  0  0
  -10.5348   -2.6585  -22.4689 C   0  0  0  0  0  0  0  0  0  0  0  0
  -10.7941   -3.6942  -22.2343 H   0  0  0  0  0  0  0  0  0  0  0  0
  -10.7630   -2.4777  -23.5235 H   0  0  0  0  0  0  0  0  0  0  0  0
  -11.1324   -1.9865  -21.8521 H   0  0  0  0  0  0  0  0  0  0  0  0
   -7.1719   -5.1371  -22.3615 H   0  0  0  0  0  0  0  0  0  0  0  0
   -8.9654   -5.1727  -22.3473 H   0  0  0  0  0  0  0  0  0  0  0  0
   -8.9519   -4.2218  -26.9456 H   0  0  0  0  0  0  0  0  0  0  0  0
   -7.9822   -5.7096  -26.9859 H   0  0  0  0  0  0  0  0  0  0  0  0
   -9.9366   -5.8432  -28.6367 H   0  0  0  0  0  0  0  0  0  0  0  0
  -11.0551   -5.5656  -27.2844 H   0  0  0  0  0  0  0  0  0  0  0  0
  -10.0990   -7.0554  -27.3482 H   0  0  0  0  0  0  0  0  0  0  0  0
  1  2  1  0
  2  3  1  0
  3  4  2  0
  3  5  2  0
  3  6  1  0
  6  7  1  0
  7  8  1  0
  8  9  1  0
  9 10  1  0
  9 11  1  0
  8 12  1  0
 12 13  2  0
 12 14  1  0
 14 15  1  0
 15 16  2  0
 16 17  1  0
 17 18  2  0
 18 19  1  0
 19 20  2  0
 20 21  1  0
 21 22  2  0
 22 23  1  0
 23 24  2  0
 23 25  1  0
 22 26  1  0
 21 27  1  0
 20 28  1  0
 18 29  1  0
 16 30  1  0
 14 31  1  0
 31 32  2  0
 31 33  1  0
 33 34  1  0
 34 35  1  0
 34 36  1  0
 34 37  1  0
  7 38  1  0
  7 39  1  0
  2 40  1  0
  2 41  1  0
  1 42  1  0
  1 43  1  0
  1 44  1  0
  9  6  1  0
 24 15  1  0
 33  8  1  0
 24 19  1  0
M  END
>  <cnnaffinities>  (8) 
[5.54452, 5.54191, 5.5442, 5.57629, 5.5945, 5.57899, 5.59427, 5.65333]

>  <score>  (8) 
5.54452

>  <index>  (8) 
7

>  <Smiles>  (8) 
C(C(S(=O)(=O)N1C(C2(C1([H])[H])C(=O)N(c1c(nc(c3c(c(c(c(c13)[H])[H])[H])[H])[H])[H])C(=O)N2C([H])([H])[H])([H])[H])([H])[H])([H])([H])[H]

>  <h>  (8) 
<NA>

>  <Training>  (8) 
True

>  <Success>  (8) 
True

>  <enamine_searched>  (8) 
False

>  <enamine_id>  (8) 
nan

$$$$

     RDKit          3D

 60 64  0  0  0  0  0  0  0  0999 V2000
   -7.3335    3.3720  -21.8644 C   0  0  0  0  0  0  0  0  0  0  0  0
   -8.2497    2.9210  -22.9010 N   0  0  0  0  0  0  0  0  0  0  0  0
   -7.7118    2.2103  -23.9352 C   0  0  0  0  0  0  0  0  0  0  0  0
   -6.5072    2.0413  -24.0565 O   0  0  0  0  0  0  0  0  0  0  0  0
   -8.6958    1.6189  -24.9449 C   0  0  0  0  0  0  0  0  0  0  0  0
   -9.3878    0.4784  -24.3702 N   0  0  0  0  0  0  0  0  0  0  0  0
   -8.6583   -0.7723  -24.1955 C   0  0  0  0  0  0  0  0  0  0  0  0
   -9.0617   -1.5001  -22.8868 C   0  0  2  0  0  0  0  0  0  0  0  0
   -8.5154   -0.7392  -21.6492 C   0  0  0  0  0  0  0  0  0  0  0  0
   -8.9540    0.2759  -21.1488 O   0  0  0  0  0  0  0  0  0  0  0  0
   -7.4042   -1.4135  -21.2012 N   0  0  0  0  0  0  0  0  0  0  0  0
   -6.5313   -0.9414  -20.1953 C   0  0  0  0  0  0  0  0  0  0  0  0
   -6.7746   -1.2482  -18.8856 C   0  0  0  0  0  0  0  0  0  0  0  0
   -5.9069   -1.0035  -17.8725 N   0  0  0  0  0  0  0  0  0  0  0  0
   -4.7792   -0.4081  -18.1721 C   0  0  0  0  0  0  0  0  0  0  0  0
   -4.4365    0.0246  -19.4839 C   0  0  0  0  0  0  0  0  0  0  0  0
   -3.2683    0.7811  -19.7439 C   0  0  0  0  0  0  0  0  0  0  0  0
   -3.0532    1.3124  -20.9862 C   0  0  0  0  0  0  0  0  0  0  0  0
   -3.9419    1.0281  -22.0516 C   0  0  0  0  0  0  0  0  0  0  0  0
   -5.0490    0.2451  -21.8368 C   0  0  0  0  0  0  0  0  0  0  0  0
   -5.3337   -0.2495  -20.5380 C   0  0  0  0  0  0  0  0  0  0  0  0
   -5.7152    0.0126  -22.6630 H   0  0  0  0  0  0  0  0  0  0  0  0
   -3.7762    1.4683  -23.0287 H   0  0  0  0  0  0  0  0  0  0  0  0
   -2.2005    1.9617  -21.1587 H   0  0  0  0  0  0  0  0  0  0  0  0
   -2.6115    0.9847  -18.9041 H   0  0  0  0  0  0  0  0  0  0  0  0
   -4.0668   -0.2192  -17.3674 H   0  0  0  0  0  0  0  0  0  0  0  0
   -7.7047   -1.7570  -18.6363 H   0  0  0  0  0  0  0  0  0  0  0  0
   -7.0675   -2.5966  -21.9494 C   0  0  0  0  0  0  0  0  0  0  0  0
   -8.3366   -2.8749  -22.7577 C   0  0  2  0  0  0  0  0  0  0  0  0
   -7.9915   -3.6303  -24.0264 C   0  0  0  0  0  0  0  0  0  0  0  0
   -9.1617   -3.9158  -24.7470 O   0  0  0  0  0  0  0  0  0  0  0  0
   -8.8891   -4.5710  -25.9618 C   0  0  0  0  0  0  0  0  0  0  0  0
   -8.2931   -3.9392  -26.6384 H   0  0  0  0  0  0  0  0  0  0  0  0
   -8.3427   -5.5129  -25.8022 H   0  0  0  0  0  0  0  0  0  0  0  0
   -9.8437   -4.7967  -26.4411 H   0  0  0  0  0  0  0  0  0  0  0  0
   -7.2872   -3.0343  -24.6317 H   0  0  0  0  0  0  0  0  0  0  0  0
   -7.4676   -4.5604  -23.7479 H   0  0  0  0  0  0  0  0  0  0  0  0
   -8.9810   -3.5282  -22.1698 H   0  0  0  0  0  0  0  0  0  0  0  0
   -6.1932   -2.4423  -22.6079 H   0  0  0  0  0  0  0  0  0  0  0  0
   -6.8260   -3.4090  -21.2571 H   0  0  0  0  0  0  0  0  0  0  0  0
  -10.5762   -1.5515  -22.8336 C   0  0  0  0  0  0  0  0  0  0  0  0
  -11.2216   -2.4515  -21.9812 C   0  0  0  0  0  0  0  0  0  0  0  0
  -12.6001   -2.4633  -21.8906 C   0  0  0  0  0  0  0  0  0  0  0  0
  -13.3558   -3.5775  -20.7960 Cl  0  0  0  0  0  0  0  0  0  0  0  0
  -13.3949   -1.5905  -22.6314 C   0  0  0  0  0  0  0  0  0  0  0  0
  -12.7613   -0.6694  -23.4389 C   0  0  0  0  0  0  0  0  0  0  0  0
  -11.3704   -0.6236  -23.5200 C   0  0  0  0  0  0  0  0  0  0  0  0
  -10.7551    0.5030  -24.2948 C   0  0  0  0  0  0  0  0  0  0  0  0
  -11.4279    1.3938  -24.7919 O   0  0  0  0  0  0  0  0  0  0  0  0
  -13.3244    0.0603  -24.0060 H   0  0  0  0  0  0  0  0  0  0  0  0
  -14.4764   -1.6169  -22.5447 H   0  0  0  0  0  0  0  0  0  0  0  0
  -10.6617   -3.1352  -21.3545 H   0  0  0  0  0  0  0  0  0  0  0  0
   -8.8692   -1.4441  -25.0361 H   0  0  0  0  0  0  0  0  0  0  0  0
   -7.5818   -0.5661  -24.1968 H   0  0  0  0  0  0  0  0  0  0  0  0
   -9.4538    2.3463  -25.2536 H   0  0  0  0  0  0  0  0  0  0  0  0
   -8.1308    1.3120  -25.8327 H   0  0  0  0  0  0  0  0  0  0  0  0
   -9.2100    2.7511  -22.6238 H   0  0  0  0  0  0  0  0  0  0  0  0
   -6.6534    4.1286  -22.2671 H   0  0  0  0  0  0  0  0  0  0  0  0
   -6.7388    2.5237  -21.4891 H   0  0  0  0  0  0  0  0  0  0  0  0
   -7.8997    3.8370  -21.0553 H   0  0  0  0  0  0  0  0  0  0  0  0
  1  2  1  0
  2  3  1  0
  3  4  2  0
  3  5  1  0
  5  6  1  0
  6  7  1  0
  8  7  1  6
  8  9  1  0
  9 10  2  0
  9 11  1  0
 11 12  1  0
 12 13  2  0
 13 14  1  0
 14 15  2  0
 15 16  1  0
 16 17  2  0
 17 18  1  0
 18 19  2  0
 19 20  1  0
 20 21  2  0
 20 22  1  0
 19 23  1  0
 18 24  1  0
 17 25  1  0
 15 26  1  0
 13 27  1  0
 11 28  1  0
 28 29  1  0
 29 30  1  0
 30 31  1  0
 31 32  1  0
 32 33  1  0
 32 34  1  0
 32 35  1  0
 30 36  1  0
 30 37  1  0
 29 38  1  1
 28 39  1  0
 28 40  1  0
  8 41  1  0
 41 42  2  0
 42 43  1  0
 43 44  1  0
 43 45  2  0
 45 46  1  0
 46 47  2  0
 47 48  1  0
 48 49  2  0
 46 50  1  0
 45 51  1  0
 42 52  1  0
  7 53  1  0
  7 54  1  0
  5 55  1  0
  5 56  1  0
  2 57  1  0
  1 58  1  0
  1 59  1  0
  1 60  1  0
 48  6  1  0
 29  8  1  0
 47 41  1  0
 21 12  1  0
 21 16  1  0
M  END
>  <cnnaffinities>  (9) 
[6.64493, 6.71559]

>  <score>  (9) 
6.64493

>  <index>  (9) 
8

>  <Smiles>  (9) 
C(N(C(=O)C(N1C([C@@]2(C(=O)N(c3c(nc(c4c(c(c(c(c34)[H])[H])[H])[H])[H])[H])C([C@@]2(C(OC([H])([H])[H])([H])[H])[H])([H])[H])c2c(c(Cl)c(c(c2C1=O)[H])[H])[H])([H])[H])([H])[H])[H])([H])([H])[H]

>  <h>  (9) 
<NA>

>  <Training>  (9) 
True

>  <Success>  (9) 
True

>  <enamine_searched>  (9) 
False

>  <enamine_id>  (9) 
nan

$$$$

     RDKit          3D

 41 43  0  0  0  0  0  0  0  0999 V2000
  -13.1417   -2.9299  -22.7639 C   0  0  0  0  0  0  0  0  0  0  0  0
  -11.9645   -2.0448  -23.1701 C   0  0  1  0  0  0  0  0  0  0  0  0
  -12.1530   -0.6480  -22.6232 C   0  0  0  0  0  0  0  0  0  0  0  0
  -11.3060    0.3628  -22.8227 C   0  0  0  0  0  0  0  0  0  0  0  0
  -10.0027    0.2171  -23.5768 C   0  0  0  0  0  0  0  0  0  0  0  0
   -9.0909   -0.7716  -23.0067 N   0  0  0  0  0  0  0  0  0  0  0  0
   -8.3736   -0.3697  -21.8958 C   0  0  0  0  0  0  0  0  0  0  0  0
   -8.4776    0.7571  -21.4452 O   0  0  0  0  0  0  0  0  0  0  0  0
   -7.4410   -1.4344  -21.2995 C   0  0  0  0  0  0  0  0  0  0  0  0
   -6.4968   -0.9943  -20.2217 C   0  0  0  0  0  0  0  0  0  0  0  0
   -6.7558   -1.2626  -18.9074 C   0  0  0  0  0  0  0  0  0  0  0  0
   -5.9269   -0.9893  -17.8700 N   0  0  0  0  0  0  0  0  0  0  0  0
   -4.8113   -0.3618  -18.1484 C   0  0  0  0  0  0  0  0  0  0  0  0
   -4.4348    0.0380  -19.4616 C   0  0  0  0  0  0  0  0  0  0  0  0
   -3.2843    0.8327  -19.7140 C   0  0  0  0  0  0  0  0  0  0  0  0
   -3.0624    1.3566  -20.9584 C   0  0  0  0  0  0  0  0  0  0  0  0
   -3.9167    1.0210  -22.0333 C   0  0  0  0  0  0  0  0  0  0  0  0
   -4.9943    0.1976  -21.8370 C   0  0  0  0  0  0  0  0  0  0  0  0
   -5.3081   -0.2740  -20.5326 C   0  0  0  0  0  0  0  0  0  0  0  0
   -5.6875    0.0003  -22.6519 H   0  0  0  0  0  0  0  0  0  0  0  0
   -3.7368    1.4420  -23.0216 H   0  0  0  0  0  0  0  0  0  0  0  0
   -2.2798    2.0915  -21.1138 H   0  0  0  0  0  0  0  0  0  0  0  0
   -2.6271    1.0723  -18.8788 H   0  0  0  0  0  0  0  0  0  0  0  0
   -4.1753   -0.1056  -17.3027 H   0  0  0  0  0  0  0  0  0  0  0  0
   -7.7143   -1.6998  -18.6294 H   0  0  0  0  0  0  0  0  0  0  0  0
   -6.8585   -1.8889  -22.1102 H   0  0  0  0  0  0  0  0  0  0  0  0
   -8.1051   -2.2098  -20.8983 H   0  0  0  0  0  0  0  0  0  0  0  0
   -9.3755   -2.1538  -23.3638 C   0  0  0  0  0  0  0  0  0  0  0  0
  -10.6491   -2.7156  -22.7294 C   0  0  0  0  0  0  0  0  0  0  0  0
  -10.5817   -2.6636  -21.6337 H   0  0  0  0  0  0  0  0  0  0  0  0
  -10.7167   -3.7759  -22.9999 H   0  0  0  0  0  0  0  0  0  0  0  0
   -8.5141   -2.7827  -23.1241 H   0  0  0  0  0  0  0  0  0  0  0  0
   -9.4753   -2.1957  -24.4572 H   0  0  0  0  0  0  0  0  0  0  0  0
  -10.1895   -0.0976  -24.6137 H   0  0  0  0  0  0  0  0  0  0  0  0
   -9.4689    1.1694  -23.5888 H   0  0  0  0  0  0  0  0  0  0  0  0
  -11.5265    1.3456  -22.4106 H   0  0  0  0  0  0  0  0  0  0  0  0
  -13.0580   -0.4625  -22.0425 H   0  0  0  0  0  0  0  0  0  0  0  0
  -11.9355   -1.9737  -24.2698 H   0  0  0  0  0  0  0  0  0  0  0  0
  -12.9806   -3.9748  -23.0474 H   0  0  0  0  0  0  0  0  0  0  0  0
  -13.2742   -2.8879  -21.6772 H   0  0  0  0  0  0  0  0  0  0  0  0
  -14.0763   -2.6059  -23.2292 H   0  0  0  0  0  0  0  0  0  0  0  0
  1  2  1  0
  2  3  1  0
  3  4  2  0
  4  5  1  0
  5  6  1  0
  6  7  1  0
  7  8  2  0
  7  9  1  0
  9 10  1  0
 10 11  2  0
 11 12  1  0
 12 13  2  0
 13 14  1  0
 14 15  2  0
 15 16  1  0
 16 17  2  0
 17 18  1  0
 18 19  2  0
 18 20  1  0
 17 21  1  0
 16 22  1  0
 15 23  1  0
 13 24  1  0
 11 25  1  0
  9 26  1  0
  9 27  1  0
  6 28  1  0
 28 29  1  0
 29 30  1  0
 29 31  1  0
 28 32  1  0
 28 33  1  0
  5 34  1  0
  5 35  1  0
  4 36  1  0
  3 37  1  0
  2 38  1  6
  1 39  1  0
  1 40  1  0
  1 41  1  0
 29  2  1  0
 19 10  1  0
 19 14  1  0
M  END
>  <cnnaffinities>  (10) 
[5.29296, 5.20706, 5.35709]

>  <score>  (10) 
5.29296

>  <index>  (10) 
9

>  <Smiles>  (10) 
C([C@]1(C(=C(C(N(C(=O)C(c2c(nc(c3c(c(c(c(c23)[H])[H])[H])[H])[H])[H])([H])[H])C(C1([H])[H])([H])[H])([H])[H])[H])[H])[H])([H])([H])[H]

>  <h>  (10) 
<NA>

>  <Training>  (10) 
True

>  <Success>  (10) 
True

>  <enamine_searched>  (10) 
False

>  <enamine_id>  (10) 
nan

$$$$

     RDKit          3D

 57 62  0  0  0  0  0  0  0  0999 V2000
   -8.5470   -4.2345  -23.6978 C   0  0  0  0  0  0  0  0  0  0  0  0
   -8.5979   -3.3330  -22.4729 C   0  0  1  0  0  0  0  0  0  0  0  0
   -7.2231   -2.7779  -22.0834 C   0  0  0  0  0  0  0  0  0  0  0  0
   -7.5769   -1.6621  -21.2293 N   0  0  0  0  0  0  0  0  0  0  0  0
   -6.7055   -1.1995  -20.2082 C   0  0  0  0  0  0  0  0  0  0  0  0
   -6.8691   -1.5825  -18.8995 C   0  0  0  0  0  0  0  0  0  0  0  0
   -5.9623   -1.3501  -17.9163 N   0  0  0  0  0  0  0  0  0  0  0  0
   -4.8585   -0.7292  -18.2386 C   0  0  0  0  0  0  0  0  0  0  0  0
   -4.5543   -0.2777  -19.5498 C   0  0  0  0  0  0  0  0  0  0  0  0
   -3.3217    0.3540  -19.8610 C   0  0  0  0  0  0  0  0  0  0  0  0
   -3.0723    0.7955  -21.1318 C   0  0  0  0  0  0  0  0  0  0  0  0
   -4.0612    0.6644  -22.1358 C   0  0  0  0  0  0  0  0  0  0  0  0
   -5.2660    0.0669  -21.8462 C   0  0  0  0  0  0  0  0  0  0  0  0
   -5.5237   -0.4695  -20.5582 C   0  0  0  0  0  0  0  0  0  0  0  0
   -6.0591    0.0306  -22.5862 H   0  0  0  0  0  0  0  0  0  0  0  0
   -3.8733    1.0544  -23.1342 H   0  0  0  0  0  0  0  0  0  0  0  0
   -2.1306    1.2848  -21.3687 H   0  0  0  0  0  0  0  0  0  0  0  0
   -2.6038    0.4980  -19.0564 H   0  0  0  0  0  0  0  0  0  0  0  0
   -4.1297   -0.5625  -17.4451 H   0  0  0  0  0  0  0  0  0  0  0  0
   -7.7533   -2.1435  -18.6091 H   0  0  0  0  0  0  0  0  0  0  0  0
   -8.8639   -1.1939  -21.4290 C   0  0  0  0  0  0  0  0  0  0  0  0
   -9.3331   -0.2204  -20.8911 O   0  0  0  0  0  0  0  0  0  0  0  0
   -9.5355   -2.0878  -22.5203 C   0  0  1  0  0  0  0  0  0  0  0  0
   -9.4276   -1.3212  -23.8543 C   0  0  0  0  0  0  0  0  0  0  0  0
  -10.3536   -0.2007  -23.8946 N   0  0  0  0  0  0  0  0  0  0  0  0
   -9.9261    0.9446  -24.6915 C   0  0  0  0  0  0  0  0  0  0  0  0
   -9.9622    0.6195  -26.1561 C   0  0  0  0  0  0  0  0  0  0  0  0
   -9.0159    0.6031  -27.1215 C   0  0  0  0  0  0  0  0  0  0  0  0
   -9.5816    0.0123  -28.2338 N   0  0  0  0  0  4  0  0  0  0  0  0
  -10.8594   -0.2857  -27.9536 C   0  0  0  0  0  0  0  0  0  0  0  0
  -11.1185    0.0953  -26.7003 N   0  0  0  0  0  0  0  0  0  0  0  0
  -12.0009    0.1303  -26.1877 H   0  0  0  0  0  0  0  0  0  0  0  0
  -11.5548   -0.7799  -28.6080 H   0  0  0  0  0  0  0  0  0  0  0  0
   -9.1077   -0.0942  -29.1191 H   0  0  0  0  0  0  0  0  0  0  0  0
   -7.9975    0.9629  -27.1245 H   0  0  0  0  0  0  0  0  0  0  0  0
   -8.9120    1.2220  -24.3731 H   0  0  0  0  0  0  0  0  0  0  0  0
  -10.5970    1.7756  -24.4455 H   0  0  0  0  0  0  0  0  0  0  0  0
  -11.6854   -0.4107  -23.7014 C   0  0  0  0  0  0  0  0  0  0  0  0
  -12.5546    0.2809  -24.2415 O   0  0  0  0  0  0  0  0  0  0  0  0
  -12.0204   -1.5328  -22.7895 C   0  0  0  0  0  0  0  0  0  0  0  0
  -13.3674   -1.7414  -22.4878 C   0  0  0  0  0  0  0  0  0  0  0  0
  -13.7595   -2.7214  -21.6026 C   0  0  0  0  0  0  0  0  0  0  0  0
  -12.7577   -3.5092  -21.0574 C   0  0  0  0  0  0  0  0  0  0  0  0
  -13.0996   -4.3594  -20.0752 F   0  0  0  0  0  0  0  0  0  0  0  0
  -11.4357   -3.4211  -21.4606 C   0  0  0  0  0  0  0  0  0  0  0  0
  -11.0140   -2.3662  -22.2764 C   0  0  0  0  0  0  0  0  0  0  0  0
  -10.7292   -4.1313  -21.0520 H   0  0  0  0  0  0  0  0  0  0  0  0
  -14.8008   -2.8827  -21.3445 H   0  0  0  0  0  0  0  0  0  0  0  0
  -14.1078   -1.1081  -22.9545 H   0  0  0  0  0  0  0  0  0  0  0  0
   -9.6179   -2.0014  -24.6938 H   0  0  0  0  0  0  0  0  0  0  0  0
   -8.4232   -0.9150  -23.9871 H   0  0  0  0  0  0  0  0  0  0  0  0
   -6.6005   -3.5040  -21.5438 H   0  0  0  0  0  0  0  0  0  0  0  0
   -6.6545   -2.4534  -22.9719 H   0  0  0  0  0  0  0  0  0  0  0  0
   -8.9118   -3.9309  -21.6110 H   0  0  0  0  0  0  0  0  0  0  0  0
   -9.5276   -4.6760  -23.8985 H   0  0  0  0  0  0  0  0  0  0  0  0
   -8.2298   -3.6783  -24.5875 H   0  0  0  0  0  0  0  0  0  0  0  0
   -7.8225   -5.0459  -23.5505 H   0  0  0  0  0  0  0  0  0  0  0  0
  1  2  1  0
  2  3  1  0
  3  4  1  0
  4  5  1  0
  5  6  2  0
  6  7  1  0
  7  8  2  0
  8  9  1  0
  9 10  2  0
 10 11  1  0
 11 12  2  0
 12 13  1  0
 13 14  2  0
 13 15  1  0
 12 16  1  0
 11 17  1  0
 10 18  1  0
  8 19  1  0
  6 20  1  0
  4 21  1  0
 21 22  2  0
 21 23  1  0
 23 24  1  6
 24 25  1  0
 25 26  1  0
 26 27  1  0
 27 28  2  0
 28 29  1  0
 29 30  2  0
 30 31  1  0
 31 32  1  0
 30 33  1  0
 29 34  1  0
 28 35  1  0
 26 36  1  0
 26 37  1  0
 25 38  1  0
 38 39  2  0
 38 40  1  0
 40 41  2  0
 41 42  1  0
 42 43  2  0
 43 44  1  0
 43 45  1  0
 45 46  2  0
 45 47  1  0
 42 48  1  0
 41 49  1  0
 24 50  1  0
 24 51  1  0
  3 52  1  0
  3 53  1  0
  2 54  1  1
  1 55  1  0
  1 56  1  0
  1 57  1  0
 23  2  1  0
 31 27  1  0
 46 40  1  0
 14  5  1  0
 46 23  1  0
 14  9  1  0
M  CHG  1  29   1
M  END
>  <cnnaffinities>  (11) 
[6.25135]

>  <score>  (11) 
6.25135

>  <index>  (11) 
10

>  <Smiles>  (11) 
C([C@]1(C(N(c2c(nc(c3c(c(c(c(c23)[H])[H])[H])[H])[H])[H])C(=O)[C@]21C(N(C(c1c([n+](c(n1[H])[H])[H])[H])([H])[H])C(=O)c1c(c(c(F)c(c21)[H])[H])[H])([H])[H])([H])[H])[H])([H])([H])[H]

>  <h>  (11) 
<NA>

>  <Training>  (11) 
True

>  <Success>  (11) 
True

>  <enamine_searched>  (11) 
False

>  <enamine_id>  (11) 
nan

$$$$

     RDKit          3D

 48 52  0  0  0  0  0  0  0  0999 V2000
  -10.5310   -2.5471  -22.3364 C   0  0  0  0  0  0  0  0  0  0  0  0
   -9.1071   -2.3411  -22.1468 N   0  0  0  0  0  0  0  0  0  0  0  0
   -8.6388   -1.3057  -21.3823 C   0  0  0  0  0  0  0  0  0  0  0  0
   -9.2941   -0.4230  -20.8811 O   0  0  0  0  0  0  0  0  0  0  0  0
   -7.2439   -1.4526  -21.3089 N   0  0  0  0  0  0  0  0  0  0  0  0
   -6.4321   -0.9787  -20.2418 C   0  0  0  0  0  0  0  0  0  0  0  0
   -6.6626   -1.3854  -18.9535 C   0  0  0  0  0  0  0  0  0  0  0  0
   -5.7783   -1.2115  -17.9432 N   0  0  0  0  0  0  0  0  0  0  0  0
   -4.6541   -0.5915  -18.2167 C   0  0  0  0  0  0  0  0  0  0  0  0
   -4.3284   -0.0649  -19.5017 C   0  0  0  0  0  0  0  0  0  0  0  0
   -3.1200    0.6293  -19.7732 C   0  0  0  0  0  0  0  0  0  0  0  0
   -2.8753    1.1382  -21.0180 C   0  0  0  0  0  0  0  0  0  0  0  0
   -3.8221    1.0015  -22.0538 C   0  0  0  0  0  0  0  0  0  0  0  0
   -4.9955    0.3332  -21.8243 C   0  0  0  0  0  0  0  0  0  0  0  0
   -5.2595   -0.2371  -20.5473 C   0  0  0  0  0  0  0  0  0  0  0  0
   -5.7367    0.2523  -22.6113 H   0  0  0  0  0  0  0  0  0  0  0  0
   -3.6169    1.4312  -23.0298 H   0  0  0  0  0  0  0  0  0  0  0  0
   -1.9437    1.6530  -21.2262 H   0  0  0  0  0  0  0  0  0  0  0  0
   -2.4066    0.7808  -18.9711 H   0  0  0  0  0  0  0  0  0  0  0  0
   -3.9551   -0.4608  -17.3887 H   0  0  0  0  0  0  0  0  0  0  0  0
   -7.5817   -1.9156  -18.7091 H   0  0  0  0  0  0  0  0  0  0  0  0
   -6.8117   -2.5608  -22.0337 C   0  0  0  0  0  0  0  0  0  0  0  0
   -5.6748   -2.9556  -22.0977 O   0  0  0  0  0  0  0  0  0  0  0  0
   -8.0462   -3.1812  -22.6420 C   0  0  0  0  0  0  0  0  0  0  0  0
   -7.9759   -3.4581  -24.1555 C   0  0  0  0  0  0  0  0  0  0  0  0
   -8.0464   -4.9152  -23.8978 N   0  0  0  0  0  0  0  0  0  0  0  0
   -9.3604   -5.7398  -24.5626 S   0  0  0  0  0  0  0  0  0  0  0  0
   -9.1561   -7.1455  -24.2917 O   0  0  0  0  0  0  0  0  0  0  0  0
  -10.5924   -5.0752  -24.1466 O   0  0  0  0  0  0  0  0  0  0  0  0
   -9.1086   -5.4301  -26.2889 C   0  0  0  0  0  0  0  0  0  0  0  0
   -8.2259   -6.2532  -26.9730 C   0  0  0  0  0  0  0  0  0  0  0  0
   -8.1008   -6.0977  -28.3482 C   0  0  0  0  0  0  0  0  0  0  0  0
   -8.8489   -5.1194  -28.9950 C   0  0  0  0  0  0  0  0  0  0  0  0
   -9.6796   -4.2511  -28.2884 C   0  0  0  0  0  0  0  0  0  0  0  0
   -9.8174   -4.4116  -26.9144 C   0  0  0  0  0  0  0  0  0  0  0  0
  -10.4780   -3.7885  -26.3174 H   0  0  0  0  0  0  0  0  0  0  0  0
  -10.2247   -3.4555  -28.7875 H   0  0  0  0  0  0  0  0  0  0  0  0
   -8.7718   -5.0583  -30.0649 H   0  0  0  0  0  0  0  0  0  0  0  0
   -7.4347   -6.7491  -28.9086 H   0  0  0  0  0  0  0  0  0  0  0  0
   -7.6912   -7.0139  -26.4151 H   0  0  0  0  0  0  0  0  0  0  0  0
   -8.1054   -4.7034  -22.4311 C   0  0  0  0  0  0  0  0  0  0  0  0
   -8.9941   -5.0832  -21.9331 H   0  0  0  0  0  0  0  0  0  0  0  0
   -7.2036   -5.0793  -21.9522 H   0  0  0  0  0  0  0  0  0  0  0  0
   -7.0339   -3.1890  -24.6335 H   0  0  0  0  0  0  0  0  0  0  0  0
   -8.8125   -3.0485  -24.7279 H   0  0  0  0  0  0  0  0  0  0  0  0
  -10.8061   -2.4311  -23.3878 H   0  0  0  0  0  0  0  0  0  0  0  0
  -10.8396   -3.5423  -22.0060 H   0  0  0  0  0  0  0  0  0  0  0  0
  -11.0550   -1.7898  -21.7476 H   0  0  0  0  0  0  0  0  0  0  0  0
  1  2  1  0
  2  3  1  0
  3  4  2  0
  3  5  1  0
  5  6  1  0
  6  7  2  0
  7  8  1  0
  8  9  2  0
  9 10  1  0
 10 11  2  0
 11 12  1  0
 12 13  2  0
 13 14  1  0
 14 15  2  0
 14 16  1  0
 13 17  1  0
 12 18  1  0
 11 19  1  0
  9 20  1  0
  7 21  1  0
  5 22  1  0
 22 23  2  0
 22 24  1  0
 24 25  1  0
 25 26  1  0
 26 27  1  0
 27 28  2  0
 27 29  2  0
 27 30  1  0
 30 31  2  0
 31 32  1  0
 32 33  2  0
 33 34  1  0
 34 35  2  0
 35 36  1  0
 34 37  1  0
 33 38  1  0
 32 39  1  0
 31 40  1  0
 26 41  1  0
 41 42  1  0
 41 43  1  0
 25 44  1  0
 25 45  1  0
  1 46  1  0
  1 47  1  0
  1 48  1  0
 24  2  1  0
 35 30  1  0
 15  6  1  0
 41 24  1  0
 15 10  1  0
M  END
>  <cnnaffinities>  (12) 
[5.90174, 5.72167]

>  <score>  (12) 
5.90174

>  <index>  (12) 
11

>  <Smiles>  (12) 
C(N1C(=O)N(c2c(nc(c3c(c(c(c(c23)[H])[H])[H])[H])[H])[H])C(=O)C21C(N(S(=O)(=O)c1c(c(c(c(c1[H])[H])[H])[H])[H])C2([H])[H])([H])[H])([H])([H])[H]

>  <h>  (12) 
<NA>

>  <Training>  (12) 
True

>  <Success>  (12) 
True

>  <enamine_searched>  (12) 
False

>  <enamine_id>  (12) 
nan

$$$$

     RDKit          3D

 76 82  0  0  0  0  0  0  0  0999 V2000
  -10.3794   -1.9452  -27.0809 O   0  0  0  0  0  0  0  0  0  0  0  0
   -9.8837   -1.7074  -25.9835 C   0  0  0  0  0  0  0  0  0  0  0  0
  -10.6616   -1.0370  -24.9098 C   0  0  0  0  0  0  0  0  0  0  0  0
  -11.9158   -0.5413  -25.2540 C   0  0  0  0  0  0  0  0  0  0  0  0
  -12.8126   -0.2022  -24.2711 C   0  0  0  0  0  0  0  0  0  0  0  0
  -12.4105   -0.3687  -22.9457 C   0  0  0  0  0  0  0  0  0  0  0  0
  -13.6769   -0.3574  -21.7696 Cl  0  0  0  0  0  0  0  0  0  0  0  0
  -11.1183   -0.7213  -22.5900 C   0  0  0  0  0  0  0  0  0  0  0  0
  -10.1996   -1.0520  -23.5849 C   0  0  0  0  0  0  0  0  0  0  0  0
   -8.7950   -1.4825  -23.1984 C   0  0  1  0  0  0  0  0  0  0  0  0
   -7.9422   -1.4482  -24.4981 C   0  0  0  0  0  0  0  0  0  0  0  0
   -8.6111   -2.0646  -25.6400 N   0  0  0  0  0  0  0  0  0  0  0  0
   -7.8315   -2.7657  -26.6495 C   0  0  0  0  0  0  0  0  0  0  0  0
   -7.5421   -1.9453  -27.9062 C   0  0  0  0  0  0  0  0  0  0  0  0
   -6.7425   -0.7020  -27.5993 N   0  0  0  0  0  4  0  0  0  0  0  0
   -5.6072   -0.4809  -28.5695 C   0  0  0  0  0  0  0  0  0  0  0  0
   -6.1207    0.0479  -29.9024 C   0  0  0  0  0  0  0  0  0  0  0  0
   -6.8118    1.2714  -29.7331 O   0  0  0  0  0  0  0  0  0  0  0  0
   -7.9471    1.1023  -28.9092 C   0  0  0  0  0  0  0  0  0  0  0  0
   -7.5779    0.5726  -27.5271 C   0  0  0  0  0  0  0  0  0  0  0  0
   -6.9862    1.3233  -26.9983 H   0  0  0  0  0  0  0  0  0  0  0  0
   -8.4816    0.3641  -26.9492 H   0  0  0  0  0  0  0  0  0  0  0  0
   -8.6751    0.4298  -29.3918 H   0  0  0  0  0  0  0  0  0  0  0  0
   -8.4137    2.0861  -28.8084 H   0  0  0  0  0  0  0  0  0  0  0  0
   -6.7812   -0.7014  -30.3706 H   0  0  0  0  0  0  0  0  0  0  0  0
   -5.2876    0.2441  -30.5818 H   0  0  0  0  0  0  0  0  0  0  0  0
   -4.9273    0.2465  -28.1245 H   0  0  0  0  0  0  0  0  0  0  0  0
   -5.0709   -1.4248  -28.7079 H   0  0  0  0  0  0  0  0  0  0  0  0
   -6.3253   -0.8417  -26.6642 H   0  0  0  0  0  0  0  0  0  0  0  0
   -8.4791   -1.6621  -28.3815 H   0  0  0  0  0  0  0  0  0  0  0  0
   -6.9683   -2.5579  -28.6048 H   0  0  0  0  0  0  0  0  0  0  0  0
   -8.3623   -3.6747  -26.9459 H   0  0  0  0  0  0  0  0  0  0  0  0
   -6.8854   -3.0528  -26.1804 H   0  0  0  0  0  0  0  0  0  0  0  0
   -7.7130   -0.3903  -24.7124 H   0  0  0  0  0  0  0  0  0  0  0  0
   -6.9919   -1.9703  -24.3481 H   0  0  0  0  0  0  0  0  0  0  0  0
   -8.1425   -0.5570  -22.1362 C   0  0  0  0  0  0  0  0  0  0  0  0
   -8.3100    0.6330  -21.9775 O   0  0  0  0  0  0  0  0  0  0  0  0
   -7.2967   -1.3332  -21.3601 N   0  0  0  0  0  0  0  0  0  0  0  0
   -6.4232   -0.8971  -20.3383 C   0  0  0  0  0  0  0  0  0  0  0  0
   -6.6269   -1.3481  -19.0544 C   0  0  0  0  0  0  0  0  0  0  0  0
   -5.7689   -1.1635  -18.0268 N   0  0  0  0  0  0  0  0  0  0  0  0
   -4.6487   -0.5355  -18.2836 C   0  0  0  0  0  0  0  0  0  0  0  0
   -4.2991   -0.0365  -19.5691 C   0  0  0  0  0  0  0  0  0  0  0  0
   -3.0590    0.6111  -19.7977 C   0  0  0  0  0  0  0  0  0  0  0  0
   -2.7361    1.0711  -21.0428 C   0  0  0  0  0  0  0  0  0  0  0  0
   -3.6602    0.9559  -22.1039 C   0  0  0  0  0  0  0  0  0  0  0  0
   -4.8838    0.3699  -21.8989 C   0  0  0  0  0  0  0  0  0  0  0  0
   -5.2187   -0.1813  -20.6317 C   0  0  0  0  0  0  0  0  0  0  0  0
   -5.6197    0.3509  -22.6957 H   0  0  0  0  0  0  0  0  0  0  0  0
   -3.4022    1.3394  -23.0865 H   0  0  0  0  0  0  0  0  0  0  0  0
   -1.7801    1.5568  -21.2164 H   0  0  0  0  0  0  0  0  0  0  0  0
   -2.3982    0.7544  -18.9489 H   0  0  0  0  0  0  0  0  0  0  0  0
   -3.9485   -0.3993  -17.4588 H   0  0  0  0  0  0  0  0  0  0  0  0
   -7.5434   -1.8862  -18.8109 H   0  0  0  0  0  0  0  0  0  0  0  0
   -7.3349   -2.7322  -21.7158 C   0  0  0  0  0  0  0  0  0  0  0  0
   -8.6922   -2.8296  -22.3938 C   0  0  2  0  0  0  0  0  0  0  0  0
   -8.8858   -4.1521  -23.1247 C   0  0  0  0  0  0  0  0  0  0  0  0
  -10.0442   -4.1433  -23.9817 N   0  0  0  0  0  0  0  0  0  0  0  0
  -11.3207   -4.5715  -23.4680 C   0  0  0  0  0  0  0  0  0  0  0  0
  -11.5493   -3.9676  -22.1579 N   0  0  0  0  0  0  0  0  0  0  0  0
  -12.7161   -3.9321  -21.6745 C   0  0  0  0  0  0  0  0  0  0  0  0
  -14.0832   -4.6937  -22.4394 C   0  0  0  0  0  0  0  0  0  0  0  0
  -14.2861   -4.4678  -22.4850 C   0  0  0  0  0  0  0  0  0  0  0  0
  -12.0882   -5.2952  -24.1229 N   0  0  0  0  0  0  0  0  0  0  0  0
  -14.7838   -4.9809  -23.4325 H   0  0  0  0  0  0  0  0  0  0  0  0
  -15.0475   -4.9023  -21.6820 H   0  0  0  0  0  0  0  0  0  0  0  0
  -12.7723   -3.4419  -20.6606 H   0  0  0  0  0  0  0  0  0  0  0  0
   -9.8723   -4.5472  -24.8990 H   0  0  0  0  0  0  0  0  0  0  0  0
   -8.9457   -4.9647  -22.3792 H   0  0  0  0  0  0  0  0  0  0  0  0
   -7.9988   -4.3317  -23.7559 H   0  0  0  0  0  0  0  0  0  0  0  0
   -9.4534   -2.7407  -21.6140 H   0  0  0  0  0  0  0  0  0  0  0  0
   -6.5076   -3.0025  -22.3950 H   0  0  0  0  0  0  0  0  0  0  0  0
   -7.2313   -3.3573  -20.8287 H   0  0  0  0  0  0  0  0  0  0  0  0
  -10.8128   -0.7711  -21.5520 H   0  0  0  0  0  0  0  0  0  0  0  0
  -13.8352    0.0889  -24.4919 H   0  0  0  0  0  0  0  0  0  0  0  0
  -12.1831   -0.4893  -26.3028 H   0  0  0  0  0  0  0  0  0  0  0  0
  1  2  2  0
  2  3  1  0
  3  4  2  0
  4  5  1  0
  5  6  2  0
  6  7  1  0
  6  8  1  0
  8  9  2  0
  9 10  1  0
 10 11  1  6
 11 12  1  0
 12 13  1  0
 13 14  1  0
 14 15  1  0
 15 16  1  0
 16 17  1  0
 17 18  1  0
 18 19  1  0
 19 20  1  0
 20 21  1  0
 20 22  1  0
 19 23  1  0
 19 24  1  0
 17 25  1  0
 17 26  1  0
 16 27  1  0
 16 28  1  0
 15 29  1  0
 14 30  1  0
 14 31  1  0
 13 32  1  0
 13 33  1  0
 11 34  1  0
 11 35  1  0
 10 36  1  0
 36 37  2  0
 36 38  1  0
 38 39  1  0
 39 40  2  0
 40 41  1  0
 41 42  2  0
 42 43  1  0
 43 44  2  0
 44 45  1  0
 45 46  2  0
 46 47  1  0
 47 48  2  0
 47 49  1  0
 46 50  1  0
 45 51  1  0
 44 52  1  0
 42 53  1  0
 40 54  1  0
 38 55  1  0
 55 56  1  0
 56 57  1  0
 57 58  1  0
 58 59  1  0
 59 60  2  0
 60 61  1  0
 61 62  2  0
 62 63  1  0
 63 64  2  0
 63 65  1  0
 62 66  1  0
 61 67  1  0
 58 68  1  0
 57 69  1  0
 57 70  1  0
 56 71  1  1
 55 72  1  0
 55 73  1  0
  8 74  1  0
  5 75  1  0
  4 76  1  0
 12  2  1  0
 20 15  1  0
 48 39  1  0
 64 59  1  0
  9  3  1  0
 56 10  1  0
 48 43  1  0
M  CHG  1  15   1
M  END
>  <cnnaffinities>  (13) 
[6.53239]

>  <score>  (13) 
6.53239

>  <index>  (13) 
12

>  <Smiles>  (13) 
O=C1c2c(c(c(Cl)c(c2[C@@]2(C(N1C(C([N+]1(C(C(OC(C1([H])[H])([H])[H])([H])[H])([H])[H])[H])([H])[H])([H])[H])([H])[H])C(=O)N(c1c(nc(c3c(c(c(c(c13)[H])[H])[H])[H])[H])[H])C([C@@]2(C(N(c1nc(c(c(n1)[H])[H])[H])[H])([H])[H])[H])([H])[H])[H])[H])[H]

>  <h>  (13) 
<NA>

>  <Training>  (13) 
True

>  <Success>  (13) 
True

>  <enamine_searched>  (13) 
False

>  <enamine_id>  (13) 
nan

$$$$

     RDKit          3D

 69 74  0  0  0  0  0  0  0  0999 V2000
   -7.4365    3.3755  -21.8539 C   0  0  0  0  0  0  0  0  0  0  0  0
   -8.4816    2.9016  -22.7507 N   0  0  0  0  0  0  0  0  0  0  0  0
   -8.0786    2.1472  -23.8136 C   0  0  0  0  0  0  0  0  0  0  0  0
   -6.8977    1.9059  -24.0236 O   0  0  0  0  0  0  0  0  0  0  0  0
   -9.1578    1.5835  -24.7375 C   0  0  0  0  0  0  0  0  0  0  0  0
   -9.7514    0.4066  -24.1324 N   0  0  0  0  0  0  0  0  0  0  0  0
   -8.9585   -0.8141  -24.0634 C   0  0  0  0  0  0  0  0  0  0  0  0
   -9.2285   -1.6014  -22.7553 C   0  0  2  0  0  0  0  0  0  0  0  0
   -8.6168   -0.8235  -21.5504 C   0  0  0  0  0  0  0  0  0  0  0  0
   -9.0707    0.1560  -21.0030 O   0  0  0  0  0  0  0  0  0  0  0  0
   -7.4217   -1.4257  -21.2270 N   0  0  0  0  0  0  0  0  0  0  0  0
   -6.5471   -0.9608  -20.2160 C   0  0  0  0  0  0  0  0  0  0  0  0
   -6.7830   -1.2649  -18.9010 C   0  0  0  0  0  0  0  0  0  0  0  0
   -5.9042   -1.0294  -17.8950 N   0  0  0  0  0  0  0  0  0  0  0  0
   -4.7771   -0.4360  -18.1940 C   0  0  0  0  0  0  0  0  0  0  0  0
   -4.4408   -0.0019  -19.5061 C   0  0  0  0  0  0  0  0  0  0  0  0
   -3.2666    0.7520  -19.7609 C   0  0  0  0  0  0  0  0  0  0  0  0
   -3.0499    1.2907  -20.9975 C   0  0  0  0  0  0  0  0  0  0  0  0
   -3.9534    1.0362  -22.0549 C   0  0  0  0  0  0  0  0  0  0  0  0
   -5.0643    0.2528  -21.8482 C   0  0  0  0  0  0  0  0  0  0  0  0
   -5.3531   -0.2561  -20.5547 C   0  0  0  0  0  0  0  0  0  0  0  0
   -5.7412    0.0481  -22.6711 H   0  0  0  0  0  0  0  0  0  0  0  0
   -3.7814    1.4708  -23.0334 H   0  0  0  0  0  0  0  0  0  0  0  0
   -2.1960    1.9393  -21.1679 H   0  0  0  0  0  0  0  0  0  0  0  0
   -2.6091    0.9485  -18.9166 H   0  0  0  0  0  0  0  0  0  0  0  0
   -4.0577   -0.2558  -17.3905 H   0  0  0  0  0  0  0  0  0  0  0  0
   -7.7119   -1.7647  -18.6378 H   0  0  0  0  0  0  0  0  0  0  0  0
   -7.0956   -2.5851  -22.0239 C   0  0  0  0  0  0  0  0  0  0  0  0
   -8.4221   -2.9356  -22.7097 C   0  0  2  0  0  0  0  0  0  0  0  0
   -8.1758   -3.6918  -24.0157 C   0  0  0  0  0  0  0  0  0  0  0  0
   -9.4056   -4.1355  -24.6258 N   0  0  0  0  0  0  0  0  0  0  0  0
   -9.4255   -4.7879  -25.8204 C   0  0  0  0  0  0  0  0  0  0  0  0
  -10.6356   -5.2664  -26.3638 C   0  0  0  0  0  0  0  0  0  0  0  0
  -10.5638   -5.8192  -27.6215 C   0  0  0  0  0  0  0  0  0  0  0  0
   -9.4155   -5.9657  -28.2971 N   0  0  0  0  0  0  0  0  0  0  0  0
   -8.3158   -5.5543  -27.6658 C   0  0  0  0  0  0  0  0  0  0  0  0
   -7.0125   -5.8117  -28.3809 C   0  0  0  0  0  0  0  0  0  0  0  0
   -7.1809   -5.7669  -29.4619 H   0  0  0  0  0  0  0  0  0  0  0  0
   -6.6556   -6.8246  -28.1499 H   0  0  0  0  0  0  0  0  0  0  0  0
   -6.2372   -5.0976  -28.0862 H   0  0  0  0  0  0  0  0  0  0  0  0
   -8.2603   -4.9579  -26.4648 N   0  0  0  0  0  0  0  0  0  0  0  0
  -11.4609   -6.1692  -28.1358 H   0  0  0  0  0  0  0  0  0  0  0  0
  -11.5725   -5.2255  -25.8150 H   0  0  0  0  0  0  0  0  0  0  0  0
  -10.2798   -3.9584  -24.1512 H   0  0  0  0  0  0  0  0  0  0  0  0
   -7.5423   -4.5639  -23.8070 H   0  0  0  0  0  0  0  0  0  0  0  0
   -7.6222   -3.0654  -24.7312 H   0  0  0  0  0  0  0  0  0  0  0  0
   -8.9572   -3.6130  -22.0363 H   0  0  0  0  0  0  0  0  0  0  0  0
   -6.2962   -2.3767  -22.7552 H   0  0  0  0  0  0  0  0  0  0  0  0
   -6.7430   -3.3907  -21.3735 H   0  0  0  0  0  0  0  0  0  0  0  0
  -10.7344   -1.7409  -22.5992 C   0  0  0  0  0  0  0  0  0  0  0  0
  -11.2995   -2.7469  -21.8074 C   0  0  0  0  0  0  0  0  0  0  0  0
  -12.6652   -2.7805  -21.5856 C   0  0  0  0  0  0  0  0  0  0  0  0
  -13.3194   -3.9768  -20.5150 Cl  0  0  0  0  0  0  0  0  0  0  0  0
  -13.5314   -1.8500  -22.1506 C   0  0  0  0  0  0  0  0  0  0  0  0
  -12.9838   -0.8567  -22.9320 C   0  0  0  0  0  0  0  0  0  0  0  0
  -11.6082   -0.7861  -23.1413 C   0  0  0  0  0  0  0  0  0  0  0  0
  -11.0987    0.3940  -23.9083 C   0  0  0  0  0  0  0  0  0  0  0  0
  -11.8398    1.2917  -24.2863 O   0  0  0  0  0  0  0  0  0  0  0  0
  -13.5992   -0.0855  -23.3763 H   0  0  0  0  0  0  0  0  0  0  0  0
  -14.5956   -1.8899  -21.9447 H   0  0  0  0  0  0  0  0  0  0  0  0
  -10.6972   -3.4932  -21.3038 H   0  0  0  0  0  0  0  0  0  0  0  0
   -7.8984   -0.5491  -24.1322 H   0  0  0  0  0  0  0  0  0  0  0  0
   -9.1970   -1.4569  -24.9222 H   0  0  0  0  0  0  0  0  0  0  0  0
   -8.6842    1.3154  -25.6903 H   0  0  0  0  0  0  0  0  0  0  0  0
   -9.9645    2.2943  -24.9411 H   0  0  0  0  0  0  0  0  0  0  0  0
   -9.4067    2.7699  -22.3569 H   0  0  0  0  0  0  0  0  0  0  0  0
   -6.8495    2.5191  -21.4828 H   0  0  0  0  0  0  0  0  0  0  0  0
   -6.7740    4.0642  -22.3868 H   0  0  0  0  0  0  0  0  0  0  0  0
   -7.8827    3.9425  -21.0358 H   0  0  0  0  0  0  0  0  0  0  0  0
  1  2  1  0
  2  3  1  0
  3  4  2  0
  3  5  1  0
  5  6  1  0
  6  7  1  0
  8  7  1  6
  8  9  1  0
  9 10  2  0
  9 11  1  0
 11 12  1  0
 12 13  2  0
 13 14  1  0
 14 15  2  0
 15 16  1  0
 16 17  2  0
 17 18  1  0
 18 19  2  0
 19 20  1  0
 20 21  2  0
 20 22  1  0
 19 23  1  0
 18 24  1  0
 17 25  1  0
 15 26  1  0
 13 27  1  0
 11 28  1  0
 28 29  1  0
 29 30  1  0
 30 31  1  0
 31 32  1  0
 32 33  2  0
 33 34  1  0
 34 35  2  0
 35 36  1  0
 36 37  1  0
 37 38  1  0
 37 39  1  0
 37 40  1  0
 36 41  2  0
 34 42  1  0
 33 43  1  0
 31 44  1  0
 30 45  1  0
 30 46  1  0
 29 47  1  1
 28 48  1  0
 28 49  1  0
  8 50  1  0
 50 51  2  0
 51 52  1  0
 52 53  1  0
 52 54  2  0
 54 55  1  0
 55 56  2  0
 56 57  1  0
 57 58  2  0
 55 59  1  0
 54 60  1  0
 51 61  1  0
  7 62  1  0
  7 63  1  0
  5 64  1  0
  5 65  1  0
  2 66  1  0
  1 67  1  0
  1 68  1  0
  1 69  1  0
 57  6  1  0
 29  8  1  0
 41 32  1  0
 56 50  1  0
 21 12  1  0
 21 16  1  0
M  END
>  <cnnaffinities>  (14) 
[6.52144]

>  <score>  (14) 
6.52144

>  <index>  (14) 
13

>  <Smiles>  (14) 
C(N(C(=O)C(N1C([C@@]2(C(=O)N(c3c(nc(c4c(c(c(c(c34)[H])[H])[H])[H])[H])[H])C([C@@]2(C(N(c2c(c(nc(C([H])([H])[H])n2)[H])[H])[H])([H])[H])[H])([H])[H])c2c(c(Cl)c(c(c2C1=O)[H])[H])[H])([H])[H])([H])[H])[H])([H])([H])[H]

>  <h>  (14) 
<NA>

>  <Training>  (14) 
True

>  <Success>  (14) 
True

>  <enamine_searched>  (14) 
False

>  <enamine_id>  (14) 
nan

$$$$

     RDKit          3D

 73 78  0  0  0  0  0  0  0  0999 V2000
   -7.9777   -3.7382  -23.9912 C   0  0  0  0  0  0  0  0  0  0  0  0
   -8.3133   -2.8635  -22.7905 C   0  0  1  0  0  0  0  0  0  0  0  0
   -7.0981   -2.6570  -21.8772 C   0  0  0  0  0  0  0  0  0  0  0  0
   -7.4104   -1.4278  -21.1911 N   0  0  0  0  0  0  0  0  0  0  0  0
   -6.5264   -0.9401  -20.2020 C   0  0  0  0  0  0  0  0  0  0  0  0
   -6.7657   -1.2483  -18.8911 C   0  0  0  0  0  0  0  0  0  0  0  0
   -5.9244   -0.9645  -17.8678 N   0  0  0  0  0  0  0  0  0  0  0  0
   -4.8070   -0.3490  -18.1648 C   0  0  0  0  0  0  0  0  0  0  0  0
   -4.4587    0.0711  -19.4830 C   0  0  0  0  0  0  0  0  0  0  0  0
   -3.2968    0.8429  -19.7381 C   0  0  0  0  0  0  0  0  0  0  0  0
   -3.0711    1.3632  -20.9820 C   0  0  0  0  0  0  0  0  0  0  0  0
   -3.9322    1.0422  -22.0561 C   0  0  0  0  0  0  0  0  0  0  0  0
   -5.0365    0.2513  -21.8506 C   0  0  0  0  0  0  0  0  0  0  0  0
   -5.3366   -0.2323  -20.5452 C   0  0  0  0  0  0  0  0  0  0  0  0
   -5.6723   -0.0173  -22.6864 H   0  0  0  0  0  0  0  0  0  0  0  0
   -3.7528    1.4692  -23.0374 H   0  0  0  0  0  0  0  0  0  0  0  0
   -2.2338    2.0329  -21.1493 H   0  0  0  0  0  0  0  0  0  0  0  0
   -2.6496    1.0660  -18.8959 H   0  0  0  0  0  0  0  0  0  0  0  0
   -4.1138   -0.1166  -17.3534 H   0  0  0  0  0  0  0  0  0  0  0  0
   -7.6948   -1.7556  -18.6465 H   0  0  0  0  0  0  0  0  0  0  0  0
   -8.3935   -0.6798  -21.7956 C   0  0  0  0  0  0  0  0  0  0  0  0
   -8.8093    0.3812  -21.3750 O   0  0  0  0  0  0  0  0  0  0  0  0
   -8.8383   -1.4270  -23.0779 C   0  0  1  0  0  0  0  0  0  0  0  0
   -8.1396   -0.8300  -24.3296 C   0  0  0  0  0  0  0  0  0  0  0  0
   -8.5992    0.5075  -24.6260 N   0  0  0  0  0  0  0  0  0  0  0  0
   -7.6588    1.5795  -24.8924 C   0  0  0  0  0  0  0  0  0  0  0  0
   -7.5335    2.5008  -23.6817 C   0  0  0  0  0  0  0  0  0  0  0  0
   -6.4480    3.5248  -23.8497 N   0  0  0  0  0  4  0  0  0  0  0  0
   -6.7751    4.6409  -24.8281 C   0  0  0  0  0  0  0  0  0  0  0  0
   -7.7532    5.6631  -24.2405 C   0  0  0  0  0  0  0  0  0  0  0  0
   -7.3179    6.1633  -22.9350 N   0  0  0  0  0  0  0  0  0  0  0  0
   -6.5501    7.6389  -22.8280 S   0  0  0  0  0  0  0  0  0  0  0  0
   -6.0604    7.7944  -21.4704 O   0  0  0  0  0  0  0  0  0  0  0  0
   -7.4262    8.6352  -23.4207 O   0  0  0  0  0  0  0  0  0  0  0  0
   -5.1308    7.5260  -23.9132 C   0  0  0  0  0  0  0  0  0  0  0  0
   -5.4619    7.4770  -24.9514 H   0  0  0  0  0  0  0  0  0  0  0  0
   -4.5005    6.6678  -23.6841 H   0  0  0  0  0  0  0  0  0  0  0  0
   -4.5527    8.4410  -23.7762 H   0  0  0  0  0  0  0  0  0  0  0  0
   -7.0288    5.0960  -21.9750 C   0  0  0  0  0  0  0  0  0  0  0  0
   -6.0026    4.1127  -22.5320 C   0  0  0  0  0  0  0  0  0  0  0  0
   -5.0517    4.6178  -22.7022 H   0  0  0  0  0  0  0  0  0  0  0  0
   -5.8129    3.2957  -21.8284 H   0  0  0  0  0  0  0  0  0  0  0  0
   -7.9717    4.5711  -21.7771 H   0  0  0  0  0  0  0  0  0  0  0  0
   -6.6918    5.5413  -21.0408 H   0  0  0  0  0  0  0  0  0  0  0  0
   -8.7312    5.1902  -24.1030 H   0  0  0  0  0  0  0  0  0  0  0  0
   -7.9049    6.4997  -24.9233 H   0  0  0  0  0  0  0  0  0  0  0  0
   -7.1716    4.2138  -25.7501 H   0  0  0  0  0  0  0  0  0  0  0  0
   -5.8324    5.1219  -25.0886 H   0  0  0  0  0  0  0  0  0  0  0  0
   -5.6292    3.0126  -24.2261 H   0  0  0  0  0  0  0  0  0  0  0  0
   -7.3179    1.9184  -22.7805 H   0  0  0  0  0  0  0  0  0  0  0  0
   -8.4907    2.9949  -23.5187 H   0  0  0  0  0  0  0  0  0  0  0  0
   -6.6822    1.1421  -25.1223 H   0  0  0  0  0  0  0  0  0  0  0  0
   -7.9970    2.1301  -25.7752 H   0  0  0  0  0  0  0  0  0  0  0  0
   -9.9321    0.7949  -24.6738 C   0  0  0  0  0  0  0  0  0  0  0  0
  -10.3667    1.8255  -25.1693 O   0  0  0  0  0  0  0  0  0  0  0  0
  -10.8391   -0.2233  -24.0466 C   0  0  0  0  0  0  0  0  0  0  0  0
  -12.2107   -0.0452  -24.2061 C   0  0  0  0  0  0  0  0  0  0  0  0
  -13.1062   -0.8894  -23.5843 C   0  0  0  0  0  0  0  0  0  0  0  0
  -12.5978   -1.9107  -22.7847 C   0  0  0  0  0  0  0  0  0  0  0  0
  -13.6990   -2.9577  -21.9434 Cl  0  0  0  0  0  0  0  0  0  0  0  0
  -11.2396   -2.1110  -22.6228 C   0  0  0  0  0  0  0  0  0  0  0  0
  -10.3299   -1.2808  -23.2817 C   0  0  0  0  0  0  0  0  0  0  0  0
  -10.9064   -2.9025  -21.9614 H   0  0  0  0  0  0  0  0  0  0  0  0
  -14.1777   -0.7528  -23.6850 H   0  0  0  0  0  0  0  0  0  0  0  0
  -12.5469    0.7838  -24.8147 H   0  0  0  0  0  0  0  0  0  0  0  0
   -8.3550   -1.4846  -25.1840 H   0  0  0  0  0  0  0  0  0  0  0  0
   -7.0527   -0.8166  -24.1962 H   0  0  0  0  0  0  0  0  0  0  0  0
   -6.1580   -2.5876  -22.4548 H   0  0  0  0  0  0  0  0  0  0  0  0
   -6.9808   -3.4568  -21.1419 H   0  0  0  0  0  0  0  0  0  0  0  0
   -9.0740   -3.3723  -22.1924 H   0  0  0  0  0  0  0  0  0  0  0  0
   -7.1290   -3.3185  -24.5448 H   0  0  0  0  0  0  0  0  0  0  0  0
   -7.6855   -4.7394  -23.6561 H   0  0  0  0  0  0  0  0  0  0  0  0
   -8.8223   -3.8372  -24.6816 H   0  0  0  0  0  0  0  0  0  0  0  0
  1  2  1  0
  2  3  1  0
  3  4  1  0
  4  5  1  0
  5  6  2  0
  6  7  1  0
  7  8  2  0
  8  9  1  0
  9 10  2  0
 10 11  1  0
 11 12  2  0
 12 13  1  0
 13 14  2  0
 13 15  1  0
 12 16  1  0
 11 17  1  0
 10 18  1  0
  8 19  1  0
  6 20  1  0
  4 21  1  0
 21 22  2  0
 21 23  1  0
 23 24  1  6
 24 25  1  0
 25 26  1  0
 26 27  1  0
 27 28  1  0
 28 29  1  0
 29 30  1  0
 30 31  1  0
 31 32  1  0
 32 33  2  0
 32 34  2  0
 32 35  1  0
 35 36  1  0
 35 37  1  0
 35 38  1  0
 31 39  1  0
 39 40  1  0
 40 41  1  0
 40 42  1  0
 39 43  1  0
 39 44  1  0
 30 45  1  0
 30 46  1  0
 29 47  1  0
 29 48  1  0
 28 49  1  0
 27 50  1  0
 27 51  1  0
 26 52  1  0
 26 53  1  0
 25 54  1  0
 54 55  2  0
 54 56  1  0
 56 57  2  0
 57 58  1  0
 58 59  2  0
 59 60  1  0
 59 61  1  0
 61 62  2  0
 61 63  1  0
 58 64  1  0
 57 65  1  0
 24 66  1  0
 24 67  1  0
  3 68  1  0
  3 69  1  0
  2 70  1  1
  1 71  1  0
  1 72  1  0
  1 73  1  0
 23  2  1  0
 40 28  1  0
 62 56  1  0
 14  5  1  0
 62 23  1  0
 14  9  1  0
M  CHG  1  28   1
M  END
>  <cnnaffinities>  (15) 
[7.05032, 6.07353]

>  <score>  (15) 
7.05032

>  <index>  (15) 
14

>  <Smiles>  (15) 
C([C@]1(C(N(c2c(nc(c3c(c(c(c(c23)[H])[H])[H])[H])[H])[H])C(=O)[C@]21C(N(C(C([N+]1(C(C(N(S(=O)(=O)C([H])([H])[H])C(C1([H])[H])([H])[H])([H])[H])([H])[H])[H])([H])[H])([H])[H])C(=O)c1c(c(c(Cl)c(c21)[H])[H])[H])([H])[H])([H])[H])[H])([H])([H])[H]

>  <h>  (15) 
<NA>

>  <Training>  (15) 
True

>  <Success>  (15) 
True

>  <enamine_searched>  (15) 
False

>  <enamine_id>  (15) 
nan

$$$$

     RDKit          3D

 63 68  0  0  0  0  0  0  0  0999 V2000
   -7.3865    3.3673  -21.8580 C   0  0  0  0  0  0  0  0  0  0  0  0
   -8.3644    2.8906  -22.8263 N   0  0  0  0  0  0  0  0  0  0  0  0
   -7.8773    2.1729  -23.8815 C   0  0  0  0  0  0  0  0  0  0  0  0
   -6.6775    1.9895  -24.0472 O   0  0  0  0  0  0  0  0  0  0  0  0
   -8.8941    1.5849  -24.8580 C   0  0  0  0  0  0  0  0  0  0  0  0
   -9.5217    0.4124  -24.2770 N   0  0  0  0  0  0  0  0  0  0  0  0
   -8.7420   -0.8115  -24.1416 C   0  0  0  0  0  0  0  0  0  0  0  0
   -9.0907   -1.5701  -22.8346 C   0  0  2  0  0  0  0  0  0  0  0  0
   -8.5425   -0.7955  -21.6066 C   0  0  0  0  0  0  0  0  0  0  0  0
   -9.0128    0.1901  -21.0766 O   0  0  0  0  0  0  0  0  0  0  0  0
   -7.3797   -1.4154  -21.2153 N   0  0  0  0  0  0  0  0  0  0  0  0
   -6.5191   -0.9487  -20.2020 C   0  0  0  0  0  0  0  0  0  0  0  0
   -6.7657   -1.2591  -18.8934 C   0  0  0  0  0  0  0  0  0  0  0  0
   -5.8987   -1.0144  -17.8790 N   0  0  0  0  0  0  0  0  0  0  0  0
   -4.7693   -0.4223  -18.1769 C   0  0  0  0  0  0  0  0  0  0  0  0
   -4.4300    0.0192  -19.4875 C   0  0  0  0  0  0  0  0  0  0  0  0
   -3.2623    0.7761  -19.7476 C   0  0  0  0  0  0  0  0  0  0  0  0
   -3.0537    1.3135  -20.9896 C   0  0  0  0  0  0  0  0  0  0  0  0
   -3.9459    1.0377  -22.0529 C   0  0  0  0  0  0  0  0  0  0  0  0
   -5.0533    0.2542  -21.8379 C   0  0  0  0  0  0  0  0  0  0  0  0
   -5.3248   -0.2539  -20.5416 C   0  0  0  0  0  0  0  0  0  0  0  0
   -5.7291    0.0330  -22.6590 H   0  0  0  0  0  0  0  0  0  0  0  0
   -3.7912    1.4868  -23.0277 H   0  0  0  0  0  0  0  0  0  0  0  0
   -2.2021    1.9638  -21.1611 H   0  0  0  0  0  0  0  0  0  0  0  0
   -2.5960    0.9610  -18.9112 H   0  0  0  0  0  0  0  0  0  0  0  0
   -4.0521   -0.2417  -17.3732 H   0  0  0  0  0  0  0  0  0  0  0  0
   -7.6969   -1.7654  -18.6458 H   0  0  0  0  0  0  0  0  0  0  0  0
   -7.0200   -2.5862  -21.9681 C   0  0  0  0  0  0  0  0  0  0  0  0
   -8.3100   -2.9136  -22.7247 C   0  0  2  0  0  0  0  0  0  0  0  0
   -8.0141   -3.6564  -24.0308 C   0  0  0  0  0  0  0  0  0  0  0  0
   -7.4391   -4.9691  -23.7866 N   0  0  0  0  0  0  0  0  0  0  0  0
   -8.0973   -6.1178  -23.5092 C   0  0  0  0  0  0  0  0  0  0  0  0
   -7.1411   -7.0822  -23.2890 C   0  0  0  0  0  0  0  0  0  0  0  0
   -5.9173   -6.4064  -23.4589 C   0  0  0  0  0  0  0  0  0  0  0  0
   -6.1080   -5.1230  -23.7472 N   0  0  0  0  0  0  0  0  0  0  0  0
   -4.9104   -6.8050  -23.4004 H   0  0  0  0  0  0  0  0  0  0  0  0
   -7.2991   -8.1228  -23.0472 H   0  0  0  0  0  0  0  0  0  0  0  0
   -9.1795   -6.1684  -23.5039 H   0  0  0  0  0  0  0  0  0  0  0  0
   -7.2748   -3.1006  -24.6158 H   0  0  0  0  0  0  0  0  0  0  0  0
   -8.9212   -3.7769  -24.6326 H   0  0  0  0  0  0  0  0  0  0  0  0
   -8.8980   -3.5832  -22.0934 H   0  0  0  0  0  0  0  0  0  0  0  0
   -6.1691   -2.4125  -22.6517 H   0  0  0  0  0  0  0  0  0  0  0  0
   -6.7295   -3.3797  -21.2750 H   0  0  0  0  0  0  0  0  0  0  0  0
  -10.5996   -1.6830  -22.7501 C   0  0  0  0  0  0  0  0  0  0  0  0
  -11.1988   -2.6319  -21.9170 C   0  0  0  0  0  0  0  0  0  0  0  0
  -12.5741   -2.6749  -21.7893 C   0  0  0  0  0  0  0  0  0  0  0  0
  -13.2784   -3.8174  -20.6905 Cl  0  0  0  0  0  0  0  0  0  0  0  0
  -13.4117   -1.8070  -22.4861 C   0  0  0  0  0  0  0  0  0  0  0  0
  -12.8253   -0.8479  -23.2825 C   0  0  0  0  0  0  0  0  0  0  0  0
  -11.4393   -0.7631  -23.3904 C   0  0  0  0  0  0  0  0  0  0  0  0
  -10.8820    0.3954  -24.1537 C   0  0  0  0  0  0  0  0  0  0  0  0
  -11.5984    1.2813  -24.6082 O   0  0  0  0  0  0  0  0  0  0  0  0
  -13.4165   -0.1169  -23.8183 H   0  0  0  0  0  0  0  0  0  0  0  0
  -14.4890   -1.8710  -22.3752 H   0  0  0  0  0  0  0  0  0  0  0  0
  -10.6095   -3.3325  -21.3376 H   0  0  0  0  0  0  0  0  0  0  0  0
   -8.9449   -1.4724  -24.9951 H   0  0  0  0  0  0  0  0  0  0  0  0
   -7.6755   -0.5593  -24.1660 H   0  0  0  0  0  0  0  0  0  0  0  0
   -9.6928    2.2920  -25.1098 H   0  0  0  0  0  0  0  0  0  0  0  0
   -8.3619    1.3145  -25.7788 H   0  0  0  0  0  0  0  0  0  0  0  0
   -9.2995    2.7056  -22.4766 H   0  0  0  0  0  0  0  0  0  0  0  0
   -6.7771    2.5219  -21.4954 H   0  0  0  0  0  0  0  0  0  0  0  0
   -7.9045    3.8661  -21.0367 H   0  0  0  0  0  0  0  0  0  0  0  0
   -6.7318    4.1108  -22.3246 H   0  0  0  0  0  0  0  0  0  0  0  0
  1  2  1  0
  2  3  1  0
  3  4  2  0
  3  5  1  0
  5  6  1  0
  6  7  1  0
  8  7  1  6
  8  9  1  0
  9 10  2  0
  9 11  1  0
 11 12  1  0
 12 13  2  0
 13 14  1  0
 14 15  2  0
 15 16  1  0
 16 17  2  0
 17 18  1  0
 18 19  2  0
 19 20  1  0
 20 21  2  0
 20 22  1  0
 19 23  1  0
 18 24  1  0
 17 25  1  0
 15 26  1  0
 13 27  1  0
 11 28  1  0
 28 29  1  0
 29 30  1  0
 30 31  1  0
 31 32  1  0
 32 33  2  0
 33 34  1  0
 34 35  2  0
 34 36  1  0
 33 37  1  0
 32 38  1  0
 30 39  1  0
 30 40  1  0
 29 41  1  1
 28 42  1  0
 28 43  1  0
  8 44  1  0
 44 45  2  0
 45 46  1  0
 46 47  1  0
 46 48  2  0
 48 49  1  0
 49 50  2  0
 50 51  1  0
 51 52  2  0
 49 53  1  0
 48 54  1  0
 45 55  1  0
  7 56  1  0
  7 57  1  0
  5 58  1  0
  5 59  1  0
  2 60  1  0
  1 61  1  0
  1 62  1  0
  1 63  1  0
 51  6  1  0
 29  8  1  0
 35 31  1  0
 50 44  1  0
 21 12  1  0
 21 16  1  0
M  END
>  <cnnaffinities>  (16) 
[7.0595, 7.11918, 6.824]

>  <score>  (16) 
7.0595

>  <index>  (16) 
15

>  <Smiles>  (16) 
C(N(C(=O)C(N1C([C@@]2(C(=O)N(c3c(nc(c4c(c(c(c(c34)[H])[H])[H])[H])[H])[H])C([C@@]2(C(n2c(c(c(n2)[H])[H])[H])([H])[H])[H])([H])[H])c2c(c(Cl)c(c(c2C1=O)[H])[H])[H])([H])[H])([H])[H])[H])([H])([H])[H]

>  <h>  (16) 
<NA>

>  <Training>  (16) 
True

>  <Success>  (16) 
True

>  <enamine_searched>  (16) 
False

>  <enamine_id>  (16) 
nan

$$$$

     RDKit          3D

 61 66  0  0  0  0  0  0  0  0999 V2000
   -7.3173    3.3843  -21.8809 C   0  0  0  0  0  0  0  0  0  0  0  0
   -8.2115    2.9376  -22.9396 N   0  0  0  0  0  0  0  0  0  0  0  0
   -7.6578    2.2176  -23.9589 C   0  0  0  0  0  0  0  0  0  0  0  0
   -6.4525    2.0476  -24.0647 O   0  0  0  0  0  0  0  0  0  0  0  0
   -8.6325    1.6220  -24.9764 C   0  0  0  0  0  0  0  0  0  0  0  0
   -9.3353    0.4842  -24.4116 N   0  0  0  0  0  0  0  0  0  0  0  0
   -8.6128   -0.7661  -24.2242 C   0  0  0  0  0  0  0  0  0  0  0  0
   -9.0320   -1.4804  -22.9141 C   0  0  2  0  0  0  0  0  0  0  0  0
   -8.4848   -0.7140  -21.6832 C   0  0  0  0  0  0  0  0  0  0  0  0
   -8.9070    0.3212  -21.2061 O   0  0  0  0  0  0  0  0  0  0  0  0
   -7.3988   -1.4080  -21.2060 N   0  0  0  0  0  0  0  0  0  0  0  0
   -6.5258   -0.9415  -20.1994 C   0  0  0  0  0  0  0  0  0  0  0  0
   -6.7728   -1.2514  -18.8923 C   0  0  0  0  0  0  0  0  0  0  0  0
   -5.9127   -0.9993  -17.8745 N   0  0  0  0  0  0  0  0  0  0  0  0
   -4.7868   -0.3980  -18.1690 C   0  0  0  0  0  0  0  0  0  0  0  0
   -4.4371    0.0315  -19.4809 C   0  0  0  0  0  0  0  0  0  0  0  0
   -3.2713    0.7920  -19.7403 C   0  0  0  0  0  0  0  0  0  0  0  0
   -3.0537    1.3210  -20.9845 C   0  0  0  0  0  0  0  0  0  0  0  0
   -3.9365    1.0279  -22.0513 C   0  0  0  0  0  0  0  0  0  0  0  0
   -5.0408    0.2434  -21.8383 C   0  0  0  0  0  0  0  0  0  0  0  0
   -5.3278   -0.2496  -20.5387 C   0  0  0  0  0  0  0  0  0  0  0  0
   -5.7043    0.0073  -22.6656 H   0  0  0  0  0  0  0  0  0  0  0  0
   -3.7706    1.4658  -23.0306 H   0  0  0  0  0  0  0  0  0  0  0  0
   -2.2065    1.9773  -21.1550 H   0  0  0  0  0  0  0  0  0  0  0  0
   -2.6161    1.0028  -18.9010 H   0  0  0  0  0  0  0  0  0  0  0  0
   -4.0855   -0.1981  -17.3575 H   0  0  0  0  0  0  0  0  0  0  0  0
   -7.7055   -1.7565  -18.6448 H   0  0  0  0  0  0  0  0  0  0  0  0
   -7.0672   -2.6023  -21.9359 C   0  0  0  0  0  0  0  0  0  0  0  0
   -8.3247   -2.8621  -22.7670 C   0  0  2  0  0  0  0  0  0  0  0  0
   -7.9802   -3.6229  -24.0516 C   0  0  0  0  0  0  0  0  0  0  0  0
   -7.4463   -4.9462  -23.7482 N   0  0  0  0  0  0  0  0  0  0  0  0
   -6.1553   -5.2166  -23.6471 N   0  0  0  0  0  0  0  0  0  0  0  0
   -6.1801   -6.5054  -23.3411 C   0  0  0  0  0  0  0  0  0  0  0  0
   -7.4360   -6.9887  -23.2510 N   0  0  0  0  0  0  0  0  0  0  0  0
   -8.2235   -5.9810  -23.5112 N   0  0  0  0  0  0  0  0  0  0  0  0
   -5.2913   -7.1062  -23.1955 H   0  0  0  0  0  0  0  0  0  0  0  0
   -7.2080   -3.0935  -24.6124 H   0  0  0  0  0  0  0  0  0  0  0  0
   -8.8541   -3.7498  -24.6953 H   0  0  0  0  0  0  0  0  0  0  0  0
   -8.9834   -3.5153  -22.1921 H   0  0  0  0  0  0  0  0  0  0  0  0
   -6.1712   -2.4757  -22.5703 H   0  0  0  0  0  0  0  0  0  0  0  0
   -6.8656   -3.4176  -21.2374 H   0  0  0  0  0  0  0  0  0  0  0  0
  -10.5454   -1.5167  -22.8594 C   0  0  0  0  0  0  0  0  0  0  0  0
  -11.1970   -2.3969  -21.9917 C   0  0  0  0  0  0  0  0  0  0  0  0
  -12.5761   -2.4033  -21.9123 C   0  0  0  0  0  0  0  0  0  0  0  0
  -13.3444   -3.5031  -20.8106 Cl  0  0  0  0  0  0  0  0  0  0  0  0
  -13.3627   -1.5381  -22.6713 C   0  0  0  0  0  0  0  0  0  0  0  0
  -12.7217   -0.6302  -23.4876 C   0  0  0  0  0  0  0  0  0  0  0  0
  -11.3302   -0.5934  -23.5609 C   0  0  0  0  0  0  0  0  0  0  0  0
  -10.7023    0.5179  -24.3466 C   0  0  0  0  0  0  0  0  0  0  0  0
  -11.3673    1.4071  -24.8585 O   0  0  0  0  0  0  0  0  0  0  0  0
  -13.2773    0.0945  -24.0688 H   0  0  0  0  0  0  0  0  0  0  0  0
  -14.4449   -1.5616  -22.5904 H   0  0  0  0  0  0  0  0  0  0  0  0
  -10.6416   -3.0687  -21.3480 H   0  0  0  0  0  0  0  0  0  0  0  0
   -8.8161   -1.4400  -25.0678 H   0  0  0  0  0  0  0  0  0  0  0  0
   -7.5366   -0.5585  -24.2160 H   0  0  0  0  0  0  0  0  0  0  0  0
   -8.0566    1.3149  -25.8565 H   0  0  0  0  0  0  0  0  0  0  0  0
   -9.3871    2.3506  -25.2901 H   0  0  0  0  0  0  0  0  0  0  0  0
   -9.1788    2.7736  -22.6859 H   0  0  0  0  0  0  0  0  0  0  0  0
   -6.6261    4.1391  -22.2675 H   0  0  0  0  0  0  0  0  0  0  0  0
   -6.7311    2.5365  -21.4924 H   0  0  0  0  0  0  0  0  0  0  0  0
   -7.8986    3.8445  -21.0797 H   0  0  0  0  0  0  0  0  0  0  0  0
  1  2  1  0
  2  3  1  0
  3  4  2  0
  3  5  1  0
  5  6  1  0
  6  7  1  0
  8  7  1  6
  8  9  1  0
  9 10  2  0
  9 11  1  0
 11 12  1  0
 12 13  2  0
 13 14  1  0
 14 15  2  0
 15 16  1  0
 16 17  2  0
 17 18  1  0
 18 19  2  0
 19 20  1  0
 20 21  2  0
 20 22  1  0
 19 23  1  0
 18 24  1  0
 17 25  1  0
 15 26  1  0
 13 27  1  0
 11 28  1  0
 28 29  1  0
 29 30  1  0
 30 31  1  0
 31 32  1  0
 32 33  2  0
 33 34  1  0
 34 35  2  0
 33 36  1  0
 30 37  1  0
 30 38  1  0
 29 39  1  1
 28 40  1  0
 28 41  1  0
  8 42  1  0
 42 43  2  0
 43 44  1  0
 44 45  1  0
 44 46  2  0
 46 47  1  0
 47 48  2  0
 48 49  1  0
 49 50  2  0
 47 51  1  0
 46 52  1  0
 43 53  1  0
  7 54  1  0
  7 55  1  0
  5 56  1  0
  5 57  1  0
  2 58  1  0
  1 59  1  0
  1 60  1  0
  1 61  1  0
 49  6  1  0
 29  8  1  0
 35 31  1  0
 48 42  1  0
 21 12  1  0
 21 16  1  0
M  END
>  <cnnaffinities>  (17) 
[7.06925, 7.05584, 6.70808]

>  <score>  (17) 
7.06925

>  <index>  (17) 
16

>  <Smiles>  (17) 
C(N(C(=O)C(N1C([C@@]2(C(=O)N(c3c(nc(c4c(c(c(c(c34)[H])[H])[H])[H])[H])[H])C([C@@]2(C(n2nc(nn2)[H])([H])[H])[H])([H])[H])c2c(c(Cl)c(c(c2C1=O)[H])[H])[H])([H])[H])([H])[H])[H])([H])([H])[H]

>  <h>  (17) 
<NA>

>  <Training>  (17) 
True

>  <Success>  (17) 
True

>  <enamine_searched>  (17) 
False

>  <enamine_id>  (17) 
nan

$$$$

     RDKit          3D

 38 41  0  0  0  0  0  0  0  0999 V2000
  -10.7577   -4.5679  -22.7632 C   0  0  0  0  0  0  0  0  0  0  0  0
  -10.5685   -3.3097  -23.6103 C   0  0  2  0  0  0  0  0  0  0  0  0
   -9.4662   -3.5165  -24.6573 C   0  0  0  0  0  0  0  0  0  0  0  0
   -8.1191   -3.7870  -23.9652 C   0  0  0  0  0  0  0  0  0  0  0  0
   -7.9098   -2.8171  -22.8850 C   0  0  0  0  0  0  0  0  0  0  0  0
   -6.7423   -2.5999  -22.0764 C   0  0  0  0  0  0  0  0  0  0  0  0
   -5.6589   -3.1330  -22.0799 O   0  0  0  0  0  1  0  0  0  0  0  0
   -7.1357   -1.5457  -21.2067 N   0  0  0  0  0  0  0  0  0  0  0  0
   -6.3181   -1.0539  -20.1739 C   0  0  0  0  0  0  0  0  0  0  0  0
   -6.5585   -1.4003  -18.8720 C   0  0  0  0  0  0  0  0  0  0  0  0
   -5.6565   -1.2189  -17.8826 N   0  0  0  0  0  0  0  0  0  0  0  0
   -4.5351   -0.6027  -18.1756 C   0  0  0  0  0  0  0  0  0  0  0  0
   -4.2318   -0.0791  -19.4674 C   0  0  0  0  0  0  0  0  0  0  0  0
   -3.0404    0.6401  -19.7471 C   0  0  0  0  0  0  0  0  0  0  0  0
   -2.8279    1.1802  -20.9846 C   0  0  0  0  0  0  0  0  0  0  0  0
   -3.8072    1.0689  -21.9922 C   0  0  0  0  0  0  0  0  0  0  0  0
   -4.9550    0.3530  -21.7584 C   0  0  0  0  0  0  0  0  0  0  0  0
   -5.1754   -0.2641  -20.4946 C   0  0  0  0  0  0  0  0  0  0  0  0
   -5.7033    0.2725  -22.5366 H   0  0  0  0  0  0  0  0  0  0  0  0
   -3.6476    1.5618  -22.9482 H   0  0  0  0  0  0  0  0  0  0  0  0
   -1.9012    1.7039  -21.1972 H   0  0  0  0  0  0  0  0  0  0  0  0
   -2.3075    0.7650  -18.9621 H   0  0  0  0  0  0  0  0  0  0  0  0
   -3.8061   -0.5268  -17.3694 H   0  0  0  0  0  0  0  0  0  0  0  0
   -7.5020   -1.8640  -18.5889 H   0  0  0  0  0  0  0  0  0  0  0  0
   -8.4509   -1.1523  -21.4244 C   0  0  0  0  0  0  0  0  0  0  0  0
   -9.0711   -0.2760  -20.8676 O   0  0  0  0  0  0  0  0  0  0  0  0
   -8.8873   -1.9899  -22.4338 N   0  0  0  0  0  0  0  0  0  0  0  0
  -10.2860   -2.0498  -22.8036 C   0  0  0  0  0  0  0  0  0  0  0  0
  -10.5493   -1.1587  -23.3850 H   0  0  0  0  0  0  0  0  0  0  0  0
  -10.8727   -2.0262  -21.8827 H   0  0  0  0  0  0  0  0  0  0  0  0
   -7.2920   -3.7343  -24.6821 H   0  0  0  0  0  0  0  0  0  0  0  0
   -8.0673   -4.8052  -23.5470 H   0  0  0  0  0  0  0  0  0  0  0  0
   -9.7225   -4.3420  -25.3333 H   0  0  0  0  0  0  0  0  0  0  0  0
   -9.3693   -2.6133  -25.2718 H   0  0  0  0  0  0  0  0  0  0  0  0
  -11.5230   -3.0960  -24.0883 H   0  0  0  0  0  0  0  0  0  0  0  0
  -10.8712   -5.4208  -23.4441 H   0  0  0  0  0  0  0  0  0  0  0  0
   -9.8962   -4.7607  -22.1106 H   0  0  0  0  0  0  0  0  0  0  0  0
  -11.6545   -4.4949  -22.1355 H   0  0  0  0  0  0  0  0  0  0  0  0
  1  2  1  0
  2  3  1  0
  3  4  1  0
  4  5  1  0
  5  6  2  0
  6  7  1  0
  6  8  1  0
  8  9  1  0
  9 10  2  0
 10 11  1  0
 11 12  2  0
 12 13  1  0
 13 14  2  0
 14 15  1  0
 15 16  2  0
 16 17  1  0
 17 18  2  0
 17 19  1  0
 16 20  1  0
 15 21  1  0
 14 22  1  0
 12 23  1  0
 10 24  1  0
  8 25  1  0
 25 26  2  0
 25 27  1  0
 27 28  1  0
 28 29  1  0
 28 30  1  0
  4 31  1  0
  4 32  1  0
  3 33  1  0
  3 34  1  0
  2 35  1  6
  1 36  1  0
  1 37  1  0
  1 38  1  0
 28  2  1  0
 27  5  1  0
 18  9  1  0
 18 13  1  0
M  CHG  1   7  -1
M  END
>  <cnnaffinities>  (18) 
[5.49642]

>  <score>  (18) 
5.49642

>  <index>  (18) 
17

>  <Smiles>  (18) 
C([C@@]1(C(C(c2c([O-])n(c3c(nc(c4c(c(c(c(c34)[H])[H])[H])[H])[H])[H])c(=O)n2C1([H])[H])([H])[H])([H])[H])[H])([H])([H])[H]

>  <h>  (18) 
<NA>

>  <Training>  (18) 
True

>  <Success>  (18) 
True

>  <enamine_searched>  (18) 
False

>  <enamine_id>  (18) 
nan

$$$$

     RDKit          3D

 56 61  0  0  0  0  0  0  0  0999 V2000
   -7.9304   -3.5634  -24.1031 C   0  0  0  0  0  0  0  0  0  0  0  0
   -8.2956   -2.8436  -22.8124 C   0  0  1  0  0  0  0  0  0  0  0  0
   -7.0535   -2.5980  -21.9473 C   0  0  0  0  0  0  0  0  0  0  0  0
   -7.3843   -1.4060  -21.2083 N   0  0  0  0  0  0  0  0  0  0  0  0
   -6.5151   -0.9449  -20.1946 C   0  0  0  0  0  0  0  0  0  0  0  0
   -6.7630   -1.2496  -18.8839 C   0  0  0  0  0  0  0  0  0  0  0  0
   -5.8923   -1.0067  -17.8728 N   0  0  0  0  0  0  0  0  0  0  0  0
   -4.7614   -0.4144  -18.1661 C   0  0  0  0  0  0  0  0  0  0  0  0
   -4.4128    0.0070  -19.4796 C   0  0  0  0  0  0  0  0  0  0  0  0
   -3.2469    0.7693  -19.7379 C   0  0  0  0  0  0  0  0  0  0  0  0
   -3.0183    1.2790  -20.9884 C   0  0  0  0  0  0  0  0  0  0  0  0
   -3.8916    0.9674  -22.0563 C   0  0  0  0  0  0  0  0  0  0  0  0
   -4.9943    0.1768  -21.8402 C   0  0  0  0  0  0  0  0  0  0  0  0
   -5.3052   -0.2738  -20.5312 C   0  0  0  0  0  0  0  0  0  0  0  0
   -5.6468   -0.0805  -22.6673 H   0  0  0  0  0  0  0  0  0  0  0  0
   -3.7179    1.3952  -23.0410 H   0  0  0  0  0  0  0  0  0  0  0  0
   -2.1664    1.9302  -21.1611 H   0  0  0  0  0  0  0  0  0  0  0  0
   -2.6078    0.9987  -18.8925 H   0  0  0  0  0  0  0  0  0  0  0  0
   -4.0496   -0.2259  -17.3586 H   0  0  0  0  0  0  0  0  0  0  0  0
   -7.6917   -1.7615  -18.6355 H   0  0  0  0  0  0  0  0  0  0  0  0
   -8.4783   -0.7127  -21.6735 C   0  0  0  0  0  0  0  0  0  0  0  0
   -8.9314    0.2852  -21.1558 O   0  0  0  0  0  0  0  0  0  0  0  0
   -9.0014   -1.4563  -22.9371 C   0  0  1  0  0  0  0  0  0  0  0  0
   -8.5509   -0.7485  -24.2420 C   0  0  0  0  0  0  0  0  0  0  0  0
   -9.2695    0.4861  -24.4920 N   0  0  0  0  0  0  0  0  0  0  0  0
   -8.5377    1.6952  -24.8510 C   0  0  0  0  0  0  0  0  0  0  0  0
   -8.1436    2.5169  -23.6516 C   0  0  0  0  0  0  0  0  0  0  0  0
   -8.8682    3.5339  -22.9856 C   0  0  0  0  0  0  0  0  0  0  0  0
   -8.0197    3.9875  -22.0067 C   0  0  0  0  0  0  0  0  0  0  0  0
   -6.8938    3.2490  -22.1037 N   0  0  0  0  0  0  0  0  0  0  0  0
   -6.9411    2.3461  -23.0969 N   0  0  0  0  0  0  0  0  0  0  0  0
   -6.0936    3.2954  -21.4957 H   0  0  0  0  0  0  0  0  0  0  0  0
   -8.1459    4.8081  -21.3164 H   0  0  0  0  0  0  0  0  0  0  0  0
   -9.8785    3.8828  -23.1527 H   0  0  0  0  0  0  0  0  0  0  0  0
   -7.6249    1.4108  -25.3900 H   0  0  0  0  0  0  0  0  0  0  0  0
   -9.1753    2.2755  -25.5266 H   0  0  0  0  0  0  0  0  0  0  0  0
  -10.6338    0.5679  -24.3755 C   0  0  0  0  0  0  0  0  0  0  0  0
  -11.2768    1.5007  -24.8370 O   0  0  0  0  0  0  0  0  0  0  0  0
  -11.2858   -0.5446  -23.6169 C   0  0  0  0  0  0  0  0  0  0  0  0
  -12.6802   -0.5573  -23.5515 C   0  0  0  0  0  0  0  0  0  0  0  0
  -13.3439   -1.4660  -22.7566 C   0  0  0  0  0  0  0  0  0  0  0  0
  -12.5681   -2.3449  -22.0120 C   0  0  0  0  0  0  0  0  0  0  0  0
  -13.1913   -3.2104  -21.1996 F   0  0  0  0  0  0  0  0  0  0  0  0
  -11.1898   -2.3625  -22.0644 C   0  0  0  0  0  0  0  0  0  0  0  0
  -10.5181   -1.4820  -22.9150 C   0  0  0  0  0  0  0  0  0  0  0  0
  -10.6555   -3.0518  -21.4227 H   0  0  0  0  0  0  0  0  0  0  0  0
  -14.4261   -1.4855  -22.6799 H   0  0  0  0  0  0  0  0  0  0  0  0
  -13.2231    0.1842  -24.1217 H   0  0  0  0  0  0  0  0  0  0  0  0
   -7.4778   -0.5238  -24.1978 H   0  0  0  0  0  0  0  0  0  0  0  0
   -8.7122   -1.4384  -25.0808 H   0  0  0  0  0  0  0  0  0  0  0  0
   -6.8672   -3.4233  -21.2529 H   0  0  0  0  0  0  0  0  0  0  0  0
   -6.1430   -2.4741  -22.5586 H   0  0  0  0  0  0  0  0  0  0  0  0
   -8.9633   -3.4953  -22.2454 H   0  0  0  0  0  0  0  0  0  0  0  0
   -8.7987   -3.7128  -24.7528 H   0  0  0  0  0  0  0  0  0  0  0  0
   -7.1736   -2.9974  -24.6590 H   0  0  0  0  0  0  0  0  0  0  0  0
   -7.5011   -4.5391  -23.8599 H   0  0  0  0  0  0  0  0  0  0  0  0
  1  2  1  0
  2  3  1  0
  3  4  1  0
  4  5  1  0
  5  6  2  0
  6  7  1  0
  7  8  2  0
  8  9  1  0
  9 10  2  0
 10 11  1  0
 11 12  2  0
 12 13  1  0
 13 14  2  0
 13 15  1  0
 12 16  1  0
 11 17  1  0
 10 18  1  0
  8 19  1  0
  6 20  1  0
  4 21  1  0
 21 22  2  0
 21 23  1  0
 23 24  1  6
 24 25  1  0
 25 26  1  0
 26 27  1  0
 27 28  1  0
 28 29  2  0
 29 30  1  0
 30 31  1  0
 30 32  1  0
 29 33  1  0
 28 34  1  0
 26 35  1  0
 26 36  1  0
 25 37  1  0
 37 38  2  0
 37 39  1  0
 39 40  2  0
 40 41  1  0
 41 42  2  0
 42 43  1  0
 42 44  1  0
 44 45  2  0
 44 46  1  0
 41 47  1  0
 40 48  1  0
 24 49  1  0
 24 50  1  0
  3 51  1  0
  3 52  1  0
  2 53  1  1
  1 54  1  0
  1 55  1  0
  1 56  1  0
 23  2  1  0
 31 27  2  0
 45 39  1  0
 14  5  1  0
 45 23  1  0
 14  9  1  0
M  END
>  <cnnaffinities>  (19) 
[6.60839]

>  <score>  (19) 
6.60839

>  <index>  (19) 
18

>  <Smiles>  (19) 
C([C@]1(C(N(c2c(nc(c3c(c(c(c(c23)[H])[H])[H])[H])[H])[H])C(=O)[C@]21C(N(C(c1c(c(n(n1)[H])[H])[H])([H])[H])C(=O)c1c(c(c(F)c(c21)[H])[H])[H])([H])[H])([H])[H])[H])([H])([H])[H]

>  <h>  (19) 
<NA>

>  <Training>  (19) 
True

>  <Success>  (19) 
True

>  <enamine_searched>  (19) 
False

>  <enamine_id>  (19) 
nan

$$$$

     RDKit          3D

 42 45  0  0  0  0  0  0  0  0999 V2000
   -9.1155   -0.0214  -20.7780 O   0  0  0  0  0  0  0  0  0  0  0  0
   -8.6305   -0.8867  -21.4798 C   0  0  0  0  0  0  0  0  0  0  0  0
   -9.3526   -1.4972  -22.6818 C   0  0  1  0  0  0  0  0  0  0  0  0
  -10.4287   -0.5583  -23.1815 C   0  0  0  0  0  0  0  0  0  0  0  0
  -10.0829    0.7548  -23.4908 C   0  0  0  0  0  0  0  0  0  0  0  0
  -11.0367    1.6697  -23.9042 C   0  0  0  0  0  0  0  0  0  0  0  0
  -12.3713    1.2757  -23.9904 C   0  0  0  0  0  0  0  0  0  0  0  0
  -13.5919    2.4717  -24.2591 Cl  0  0  0  0  0  0  0  0  0  0  0  0
  -12.7143   -0.0665  -23.8021 C   0  0  0  0  0  0  0  0  0  0  0  0
  -14.3286   -0.6377  -24.0895 Cl  0  0  0  0  0  0  0  0  0  0  0  0
  -11.7416   -0.9748  -23.3860 C   0  0  0  0  0  0  0  0  0  0  0  0
  -12.0360   -2.0075  -23.2137 H   0  0  0  0  0  0  0  0  0  0  0  0
  -10.7500    2.6903  -24.1507 H   0  0  0  0  0  0  0  0  0  0  0  0
   -9.0566    1.0810  -23.3493 H   0  0  0  0  0  0  0  0  0  0  0  0
   -8.3339   -1.7997  -23.7823 C   0  0  0  0  0  0  0  0  0  0  0  0
   -7.2376   -2.7663  -23.3504 C   0  0  2  0  0  0  0  0  0  0  0  0
   -7.5309   -4.1176  -23.6629 O   0  0  0  0  0  0  0  0  0  0  0  0
   -8.3885   -4.3177  -23.2627 H   0  0  0  0  0  0  0  0  0  0  0  0
   -6.9315   -2.6353  -21.8599 C   0  0  0  0  0  0  0  0  0  0  0  0
   -7.3555   -1.3751  -21.2899 N   0  0  0  0  0  0  0  0  0  0  0  0
   -6.5464   -0.9165  -20.2253 C   0  0  0  0  0  0  0  0  0  0  0  0
   -6.8079   -1.2317  -18.9195 C   0  0  0  0  0  0  0  0  0  0  0  0
   -5.9723   -0.9620  -17.8874 N   0  0  0  0  0  0  0  0  0  0  0  0
   -4.8508   -0.3345  -18.1634 C   0  0  0  0  0  0  0  0  0  0  0  0
   -4.4741    0.0761  -19.4765 C   0  0  0  0  0  0  0  0  0  0  0  0
   -3.3127    0.8479  -19.7282 C   0  0  0  0  0  0  0  0  0  0  0  0
   -3.0702    1.3534  -20.9762 C   0  0  0  0  0  0  0  0  0  0  0  0
   -3.9154    1.0068  -22.0546 C   0  0  0  0  0  0  0  0  0  0  0  0
   -5.0019    0.1962  -21.8545 C   0  0  0  0  0  0  0  0  0  0  0  0
   -5.3314   -0.2409  -20.5449 C   0  0  0  0  0  0  0  0  0  0  0  0
   -5.6739   -0.0451  -22.6735 H   0  0  0  0  0  0  0  0  0  0  0  0
   -3.7202    1.4101  -23.0434 H   0  0  0  0  0  0  0  0  0  0  0  0
   -2.2478    2.0446  -21.1461 H   0  0  0  0  0  0  0  0  0  0  0  0
   -2.6694    1.1006  -18.8901 H   0  0  0  0  0  0  0  0  0  0  0  0
   -4.1890   -0.1006  -17.3336 H   0  0  0  0  0  0  0  0  0  0  0  0
   -7.7515   -1.7115  -18.6696 H   0  0  0  0  0  0  0  0  0  0  0  0
   -7.4107   -3.4653  -21.3253 H   0  0  0  0  0  0  0  0  0  0  0  0
   -5.8582   -2.7252  -21.6800 H   0  0  0  0  0  0  0  0  0  0  0  0
   -6.3331   -2.5415  -23.9230 H   0  0  0  0  0  0  0  0  0  0  0  0
   -7.8806   -0.8468  -24.0753 H   0  0  0  0  0  0  0  0  0  0  0  0
   -8.8374   -2.1958  -24.6678 H   0  0  0  0  0  0  0  0  0  0  0  0
   -9.8108   -2.4281  -22.3276 H   0  0  0  0  0  0  0  0  0  0  0  0
  1  2  2  0
  2  3  1  0
  3  4  1  0
  4  5  2  0
  5  6  1  0
  6  7  2  0
  7  8  1  0
  7  9  1  0
  9 10  1  0
  9 11  2  0
 11 12  1  0
  6 13  1  0
  5 14  1  0
  3 15  1  0
 15 16  1  0
 16 17  1  0
 17 18  1  0
 16 19  1  0
 19 20  1  0
 20 21  1  0
 21 22  2  0
 22 23  1  0
 23 24  2  0
 24 25  1  0
 25 26  2  0
 26 27  1  0
 27 28  2  0
 28 29  1  0
 29 30  2  0
 29 31  1  0
 28 32  1  0
 27 33  1  0
 26 34  1  0
 24 35  1  0
 22 36  1  0
 19 37  1  0
 19 38  1  0
 16 39  1  6
 15 40  1  0
 15 41  1  0
  3 42  1  1
 20  2  1  0
 30 21  1  0
 11  4  1  0
 30 25  1  0
M  END
>  <cnnaffinities>  (20) 
[5.99414, 5.56504, 5.66794]

>  <score>  (20) 
5.99414

>  <index>  (20) 
19

>  <Smiles>  (20) 
O=C1[C@@](c2c(c(c(Cl)c(Cl)c2[H])[H])[H])(C([C@](O[H])(C(N1c1c(nc(c2c(c(c(c(c12)[H])[H])[H])[H])[H])[H])([H])[H])[H])([H])[H])[H]

>  <h>  (20) 
<NA>

>  <Training>  (20) 
True

>  <Success>  (20) 
True

>  <enamine_searched>  (20) 
False

>  <enamine_id>  (20) 
nan

$$$$

     RDKit          3D

 66 71  0  0  0  0  0  0  0  0999 V2000
   -7.3550    3.3567  -21.8601 C   0  0  0  0  0  0  0  0  0  0  0  0
   -8.2994    2.8986  -22.8687 N   0  0  0  0  0  0  0  0  0  0  0  0
   -7.7836    2.1885  -23.9152 C   0  0  0  0  0  0  0  0  0  0  0  0
   -6.5825    2.0082  -24.0539 O   0  0  0  0  0  0  0  0  0  0  0  0
   -8.7850    1.6030  -24.9103 C   0  0  0  0  0  0  0  0  0  0  0  0
   -9.4513    0.4561  -24.3188 N   0  0  0  0  0  0  0  0  0  0  0  0
   -8.6975   -0.7804  -24.1575 C   0  0  0  0  0  0  0  0  0  0  0  0
   -9.0827   -1.5268  -22.8542 C   0  0  2  0  0  0  0  0  0  0  0  0
   -8.5328   -0.7661  -21.6162 C   0  0  0  0  0  0  0  0  0  0  0  0
   -8.9865    0.2317  -21.0938 O   0  0  0  0  0  0  0  0  0  0  0  0
   -7.3935   -1.4151  -21.2047 N   0  0  0  0  0  0  0  0  0  0  0  0
   -6.5240   -0.9469  -20.1974 C   0  0  0  0  0  0  0  0  0  0  0  0
   -6.7685   -1.2540  -18.8874 C   0  0  0  0  0  0  0  0  0  0  0  0
   -5.8992   -1.0122  -17.8747 N   0  0  0  0  0  0  0  0  0  0  0  0
   -4.7696   -0.4209  -18.1742 C   0  0  0  0  0  0  0  0  0  0  0  0
   -4.4309    0.0181  -19.4851 C   0  0  0  0  0  0  0  0  0  0  0  0
   -3.2622    0.7734  -19.7452 C   0  0  0  0  0  0  0  0  0  0  0  0
   -3.0507    1.3087  -20.9871 C   0  0  0  0  0  0  0  0  0  0  0  0
   -3.9423    1.0306  -22.0512 C   0  0  0  0  0  0  0  0  0  0  0  0
   -5.0510    0.2487  -21.8355 C   0  0  0  0  0  0  0  0  0  0  0  0
   -5.3280   -0.2531  -20.5383 C   0  0  0  0  0  0  0  0  0  0  0  0
   -5.7215    0.0220  -22.6590 H   0  0  0  0  0  0  0  0  0  0  0  0
   -3.7819    1.4753  -23.0268 H   0  0  0  0  0  0  0  0  0  0  0  0
   -2.1961    1.9554  -21.1602 H   0  0  0  0  0  0  0  0  0  0  0  0
   -2.5994    0.9651  -18.9080 H   0  0  0  0  0  0  0  0  0  0  0  0
   -4.0505   -0.2423  -17.3727 H   0  0  0  0  0  0  0  0  0  0  0  0
   -7.6988   -1.7621  -18.6391 H   0  0  0  0  0  0  0  0  0  0  0  0
   -7.0455   -2.5834  -21.9708 C   0  0  0  0  0  0  0  0  0  0  0  0
   -8.3326   -2.8940  -22.7388 C   0  0  2  0  0  0  0  0  0  0  0  0
   -8.0516   -3.6768  -24.0309 C   0  0  0  0  0  0  0  0  0  0  0  0
   -7.4876   -5.0565  -23.7639 C   0  0  0  0  0  0  0  0  0  0  0  0
   -6.1095   -5.2981  -23.7593 C   0  0  0  0  0  0  0  0  0  0  0  0
   -5.6072   -6.5676  -23.4841 C   0  0  0  0  0  0  0  0  0  0  0  0
   -6.4766   -7.6164  -23.2020 C   0  0  0  0  0  0  0  0  0  0  0  0
   -7.8495   -7.3918  -23.2072 C   0  0  0  0  0  0  0  0  0  0  0  0
   -8.3471   -6.1224  -23.4849 C   0  0  0  0  0  0  0  0  0  0  0  0
   -9.4237   -5.9568  -23.4924 H   0  0  0  0  0  0  0  0  0  0  0  0
   -8.5362   -8.2096  -23.0040 H   0  0  0  0  0  0  0  0  0  0  0  0
   -6.0847   -8.6061  -22.9827 H   0  0  0  0  0  0  0  0  0  0  0  0
   -4.5342   -6.7447  -23.4968 H   0  0  0  0  0  0  0  0  0  0  0  0
   -5.4136   -4.4876  -23.9752 H   0  0  0  0  0  0  0  0  0  0  0  0
   -8.9797   -3.7634  -24.6101 H   0  0  0  0  0  0  0  0  0  0  0  0
   -7.3414   -3.1043  -24.6413 H   0  0  0  0  0  0  0  0  0  0  0  0
   -8.9397   -3.5355  -22.0959 H   0  0  0  0  0  0  0  0  0  0  0  0
   -6.7658   -3.3936  -21.2907 H   0  0  0  0  0  0  0  0  0  0  0  0
   -6.1936   -2.4085  -22.6526 H   0  0  0  0  0  0  0  0  0  0  0  0
  -10.5950   -1.6048  -22.7892 C   0  0  0  0  0  0  0  0  0  0  0  0
  -11.2222   -2.5384  -21.9592 C   0  0  0  0  0  0  0  0  0  0  0  0
  -12.5998   -2.5649  -21.8575 C   0  0  0  0  0  0  0  0  0  0  0  0
  -13.3343   -3.7021  -20.7721 Cl  0  0  0  0  0  0  0  0  0  0  0  0
  -13.4120   -1.6897  -22.5747 C   0  0  0  0  0  0  0  0  0  0  0  0
  -12.7975   -0.7459  -23.3699 C   0  0  0  0  0  0  0  0  0  0  0  0
  -11.4077   -0.6783  -23.4546 C   0  0  0  0  0  0  0  0  0  0  0  0
  -10.8156    0.4613  -24.2257 C   0  0  0  0  0  0  0  0  0  0  0  0
  -11.5075    1.3481  -24.7098 O   0  0  0  0  0  0  0  0  0  0  0  0
  -13.3739   -0.0178  -23.9251 H   0  0  0  0  0  0  0  0  0  0  0  0
  -14.4924   -1.7359  -22.4829 H   0  0  0  0  0  0  0  0  0  0  0  0
  -10.6533   -3.2422  -21.3633 H   0  0  0  0  0  0  0  0  0  0  0  0
   -7.6260   -0.5499  -24.1649 H   0  0  0  0  0  0  0  0  0  0  0  0
   -8.8991   -1.4443  -25.0089 H   0  0  0  0  0  0  0  0  0  0  0  0
   -8.2354    1.3007  -25.8101 H   0  0  0  0  0  0  0  0  0  0  0  0
   -9.5548    2.3258  -25.2026 H   0  0  0  0  0  0  0  0  0  0  0  0
   -9.2498    2.7247  -22.5595 H   0  0  0  0  0  0  0  0  0  0  0  0
   -7.9009    3.8375  -21.0462 H   0  0  0  0  0  0  0  0  0  0  0  0
   -6.6834    4.1078  -22.2876 H   0  0  0  0  0  0  0  0  0  0  0  0
   -6.7562    2.5070  -21.4919 H   0  0  0  0  0  0  0  0  0  0  0  0
  1  2  1  0
  2  3  1  0
  3  4  2  0
  3  5  1  0
  5  6  1  0
  6  7  1  0
  8  7  1  6
  8  9  1  0
  9 10  2  0
  9 11  1  0
 11 12  1  0
 12 13  2  0
 13 14  1  0
 14 15  2  0
 15 16  1  0
 16 17  2  0
 17 18  1  0
 18 19  2  0
 19 20  1  0
 20 21  2  0
 20 22  1  0
 19 23  1  0
 18 24  1  0
 17 25  1  0
 15 26  1  0
 13 27  1  0
 11 28  1  0
 28 29  1  0
 29 30  1  0
 30 31  1  0
 31 32  2  0
 32 33  1  0
 33 34  2  0
 34 35  1  0
 35 36  2  0
 36 37  1  0
 35 38  1  0
 34 39  1  0
 33 40  1  0
 32 41  1  0
 30 42  1  0
 30 43  1  0
 29 44  1  1
 28 45  1  0
 28 46  1  0
  8 47  1  0
 47 48  2  0
 48 49  1  0
 49 50  1  0
 49 51  2  0
 51 52  1  0
 52 53  2  0
 53 54  1  0
 54 55  2  0
 52 56  1  0
 51 57  1  0
 48 58  1  0
  7 59  1  0
  7 60  1  0
  5 61  1  0
  5 62  1  0
  2 63  1  0
  1 64  1  0
  1 65  1  0
  1 66  1  0
 54  6  1  0
 29  8  1  0
 36 31  1  0
 53 47  1  0
 21 12  1  0
 21 16  1  0
M  END
>  <cnnaffinities>  (21) 
[7.15813, 7.16411]

>  <score>  (21) 
7.15813

>  <index>  (21) 
20

>  <Smiles>  (21) 
C(N(C(=O)C(N1C([C@@]2(C(=O)N(c3c(nc(c4c(c(c(c(c34)[H])[H])[H])[H])[H])[H])C([C@@]2(C(c2c(c(c(c(c2[H])[H])[H])[H])[H])([H])[H])[H])([H])[H])c2c(c(Cl)c(c(c2C1=O)[H])[H])[H])([H])[H])([H])[H])[H])([H])([H])[H]

>  <h>  (21) 
<NA>

>  <Training>  (21) 
True

>  <Success>  (21) 
True

>  <enamine_searched>  (21) 
False

>  <enamine_id>  (21) 
nan

$$$$

     RDKit          3D

 63 68  0  0  0  0  0  0  0  0999 V2000
   -8.3428   -4.1364  -23.4860 C   0  0  0  0  0  0  0  0  0  0  0  0
   -8.5602   -2.9712  -22.5418 C   0  0  1  0  0  0  0  0  0  0  0  0
   -7.3943   -2.7881  -21.5741 C   0  0  0  0  0  0  0  0  0  0  0  0
   -7.4251   -1.3823  -21.2483 N   0  0  0  0  0  0  0  0  0  0  0  0
   -6.5330   -0.9173  -20.2495 C   0  0  0  0  0  0  0  0  0  0  0  0
   -6.7550   -1.2716  -18.9439 C   0  0  0  0  0  0  0  0  0  0  0  0
   -5.8967   -1.0416  -17.9219 N   0  0  0  0  0  0  0  0  0  0  0  0
   -4.7721   -0.4324  -18.1985 C   0  0  0  0  0  0  0  0  0  0  0  0
   -4.4222    0.0063  -19.5025 C   0  0  0  0  0  0  0  0  0  0  0  0
   -3.2376    0.7480  -19.7324 C   0  0  0  0  0  0  0  0  0  0  0  0
   -2.9761    1.2595  -20.9753 C   0  0  0  0  0  0  0  0  0  0  0  0
   -3.8394    0.9738  -22.0577 C   0  0  0  0  0  0  0  0  0  0  0  0
   -4.9629    0.2139  -21.8683 C   0  0  0  0  0  0  0  0  0  0  0  0
   -5.3174   -0.2360  -20.5677 C   0  0  0  0  0  0  0  0  0  0  0  0
   -5.5897   -0.0539  -22.7104 H   0  0  0  0  0  0  0  0  0  0  0  0
   -3.6132    1.3696  -23.0447 H   0  0  0  0  0  0  0  0  0  0  0  0
   -2.1134    1.8997  -21.1331 H   0  0  0  0  0  0  0  0  0  0  0  0
   -2.6039    0.9636  -18.8756 H   0  0  0  0  0  0  0  0  0  0  0  0
   -4.0695   -0.2536  -17.3787 H   0  0  0  0  0  0  0  0  0  0  0  0
   -7.6694   -1.8083  -18.6926 H   0  0  0  0  0  0  0  0  0  0  0  0
   -8.1615   -0.6195  -22.1326 C   0  0  0  0  0  0  0  0  0  0  0  0
   -8.2678    0.5866  -22.0925 O   0  0  0  0  0  0  0  0  0  0  0  0
   -8.7749   -1.5607  -23.1978 C   0  0  1  0  0  0  0  0  0  0  0  0
   -7.9870   -1.3071  -24.5107 C   0  0  0  0  0  0  0  0  0  0  0  0
   -8.6287   -1.8714  -25.6945 N   0  0  0  0  0  0  0  0  0  0  0  0
   -7.8172   -2.2262  -26.8497 C   0  0  0  0  0  0  0  0  0  0  0  0
   -7.7930   -3.7443  -27.0307 C   0  0  0  0  0  0  0  0  0  0  0  0
   -6.9787   -4.4510  -26.4561 O   0  0  0  0  0  0  0  0  0  0  0  0
   -8.7418   -4.2266  -27.8832 N   0  0  0  0  0  0  0  0  0  0  0  0
   -8.9236   -5.6612  -28.0161 C   0  0  0  0  0  0  0  0  0  0  0  0
   -9.5474   -6.2772  -26.7789 C   0  0  0  0  0  0  0  0  0  0  0  0
   -9.5886   -7.7673  -26.6349 C   0  0  0  0  0  0  0  0  0  0  0  0
   -8.6748   -6.9622  -25.7653 C   0  0  0  0  0  0  0  0  0  0  0  0
   -8.9261   -6.8418  -24.7146 H   0  0  0  0  0  0  0  0  0  0  0  0
   -7.6147   -7.0084  -26.0075 H   0  0  0  0  0  0  0  0  0  0  0  0
   -9.1308   -8.3680  -27.4174 H   0  0  0  0  0  0  0  0  0  0  0  0
  -10.4712   -8.1989  -26.1763 H   0  0  0  0  0  0  0  0  0  0  0  0
  -10.4102   -5.7355  -26.3825 H   0  0  0  0  0  0  0  0  0  0  0  0
   -9.5508   -5.8464  -28.8977 H   0  0  0  0  0  0  0  0  0  0  0  0
   -7.9452   -6.1178  -28.2184 H   0  0  0  0  0  0  0  0  0  0  0  0
   -9.5547   -3.6393  -28.0355 H   0  0  0  0  0  0  0  0  0  0  0  0
   -6.8060   -1.8490  -26.6935 H   0  0  0  0  0  0  0  0  0  0  0  0
   -8.2339   -1.7459  -27.7396 H   0  0  0  0  0  0  0  0  0  0  0  0
   -9.9714   -1.7821  -25.9059 C   0  0  0  0  0  0  0  0  0  0  0  0
  -10.4777   -2.0541  -26.9957 O   0  0  0  0  0  0  0  0  0  0  0  0
  -10.7970   -1.3709  -24.7394 C   0  0  0  0  0  0  0  0  0  0  0  0
  -12.1580   -1.1528  -24.9520 C   0  0  0  0  0  0  0  0  0  0  0  0
  -13.0022   -0.8601  -23.9030 C   0  0  0  0  0  0  0  0  0  0  0  0
  -12.4456   -0.7921  -22.6355 C   0  0  0  0  0  0  0  0  0  0  0  0
  -13.2767   -0.5410  -21.6173 F   0  0  0  0  0  0  0  0  0  0  0  0
  -11.0968   -0.9900  -22.3940 C   0  0  0  0  0  0  0  0  0  0  0  0
  -10.2404   -1.2698  -23.4620 C   0  0  0  0  0  0  0  0  0  0  0  0
  -10.7041   -0.9356  -21.3884 H   0  0  0  0  0  0  0  0  0  0  0  0
  -14.0677   -0.6979  -24.0408 H   0  0  0  0  0  0  0  0  0  0  0  0
  -12.5352   -1.2344  -25.9619 H   0  0  0  0  0  0  0  0  0  0  0  0
   -7.8741   -0.2197  -24.6369 H   0  0  0  0  0  0  0  0  0  0  0  0
   -6.9811   -1.7364  -24.4238 H   0  0  0  0  0  0  0  0  0  0  0  0
   -7.5126   -3.3520  -20.6557 H   0  0  0  0  0  0  0  0  0  0  0  0
   -6.4283   -3.0858  -22.0149 H   0  0  0  0  0  0  0  0  0  0  0  0
   -9.4650   -3.1603  -21.9445 H   0  0  0  0  0  0  0  0  0  0  0  0
   -9.1614   -4.2107  -24.2066 H   0  0  0  0  0  0  0  0  0  0  0  0
   -8.2870   -5.0730  -22.9204 H   0  0  0  0  0  0  0  0  0  0  0  0
   -7.4128   -4.0115  -24.0471 H   0  0  0  0  0  0  0  0  0  0  0  0
  1  2  1  0
  2  3  1  0
  3  4  1  0
  4  5  1  0
  5  6  2  0
  6  7  1  0
  7  8  2  0
  8  9  1  0
  9 10  2  0
 10 11  1  0
 11 12  2  0
 12 13  1  0
 13 14  2  0
 13 15  1  0
 12 16  1  0
 11 17  1  0
 10 18  1  0
  8 19  1  0
  6 20  1  0
  4 21  1  0
 21 22  2  0
 21 23  1  0
 23 24  1  6
 24 25  1  0
 25 26  1  0
 26 27  1  0
 27 28  2  0
 27 29  1  0
 29 30  1  0
 30 31  1  0
 31 32  1  0
 32 33  1  0
 33 34  1  0
 33 35  1  0
 32 36  1  0
 32 37  1  0
 31 38  1  0
 30 39  1  0
 30 40  1  0
 29 41  1  0
 26 42  1  0
 26 43  1  0
 25 44  1  0
 44 45  2  0
 44 46  1  0
 46 47  2  0
 47 48  1  0
 48 49  2  0
 49 50  1  0
 49 51  1  0
 51 52  2  0
 51 53  1  0
 48 54  1  0
 47 55  1  0
 24 56  1  0
 24 57  1  0
  3 58  1  0
  3 59  1  0
  2 60  1  1
  1 61  1  0
  1 62  1  0
  1 63  1  0
 23  2  1  0
 33 31  1  0
 52 46  1  0
 14  5  1  0
 52 23  1  0
 14  9  1  0
M  END
>  <cnnaffinities>  (22) 
[6.17125]

>  <score>  (22) 
6.17125

>  <index>  (22) 
21

>  <Smiles>  (22) 
C([C@]1(C(N(c2c(nc(c3c(c(c(c(c23)[H])[H])[H])[H])[H])[H])C(=O)[C@]21C(N(C(C(=O)N(C(C1(C(C1([H])[H])([H])[H])[H])([H])[H])[H])([H])[H])C(=O)c1c(c(c(F)c(c21)[H])[H])[H])([H])[H])([H])[H])[H])([H])([H])[H]

>  <h>  (22) 
<NA>

>  <Training>  (22) 
True

>  <Success>  (22) 
True

>  <enamine_searched>  (22) 
False

>  <enamine_id>  (22) 
nan

$$$$

     RDKit          3D

 68 73  0  0  0  0  0  0  0  0999 V2000
   -7.3284    3.4096  -21.8590 C   0  0  0  0  0  0  0  0  0  0  0  0
   -8.2870    2.9746  -22.8623 N   0  0  0  0  0  0  0  0  0  0  0  0
   -7.8026    2.2388  -23.9026 C   0  0  0  0  0  0  0  0  0  0  0  0
   -6.6069    2.0090  -24.0409 O   0  0  0  0  0  0  0  0  0  0  0  0
   -8.8268    1.6770  -24.8847 C   0  0  0  0  0  0  0  0  0  0  0  0
   -9.4984    0.5389  -24.2855 N   0  0  0  0  0  0  0  0  0  0  0  0
   -8.7531   -0.7067  -24.1555 C   0  0  0  0  0  0  0  0  0  0  0  0
   -9.1381   -1.4772  -22.8680 C   0  0  2  0  0  0  0  0  0  0  0  0
   -8.5500   -0.7411  -21.6283 C   0  0  0  0  0  0  0  0  0  0  0  0
   -8.9669    0.2706  -21.1014 O   0  0  0  0  0  0  0  0  0  0  0  0
   -7.4251   -1.4238  -21.2304 N   0  0  0  0  0  0  0  0  0  0  0  0
   -6.5366   -0.9753  -20.2226 C   0  0  0  0  0  0  0  0  0  0  0  0
   -6.7741   -1.2809  -18.9116 C   0  0  0  0  0  0  0  0  0  0  0  0
   -5.8903   -1.0630  -17.9054 N   0  0  0  0  0  0  0  0  0  0  0  0
   -4.7565   -0.4795  -18.2032 C   0  0  0  0  0  0  0  0  0  0  0  0
   -4.4262   -0.0295  -19.5100 C   0  0  0  0  0  0  0  0  0  0  0  0
   -3.2546    0.7224  -19.7641 C   0  0  0  0  0  0  0  0  0  0  0  0
   -3.0457    1.2770  -20.9984 C   0  0  0  0  0  0  0  0  0  0  0  0
   -3.9534    1.0268  -22.0565 C   0  0  0  0  0  0  0  0  0  0  0  0
   -5.0593    0.2427  -21.8494 C   0  0  0  0  0  0  0  0  0  0  0  0
   -5.3390   -0.2779  -20.5595 C   0  0  0  0  0  0  0  0  0  0  0  0
   -5.7400    0.0402  -22.6721 H   0  0  0  0  0  0  0  0  0  0  0  0
   -3.7960    1.4866  -23.0280 H   0  0  0  0  0  0  0  0  0  0  0  0
   -2.1885    1.9196  -21.1664 H   0  0  0  0  0  0  0  0  0  0  0  0
   -2.5819    0.8937  -18.9281 H   0  0  0  0  0  0  0  0  0  0  0  0
   -4.0281   -0.3248  -17.4043 H   0  0  0  0  0  0  0  0  0  0  0  0
   -7.7102   -1.7740  -18.6531 H   0  0  0  0  0  0  0  0  0  0  0  0
   -7.1220   -2.5947  -22.0181 C   0  0  0  0  0  0  0  0  0  0  0  0
   -8.4218   -2.8621  -22.7859 C   0  0  2  0  0  0  0  0  0  0  0  0
   -8.1322   -3.6252  -24.0797 C   0  0  0  0  0  0  0  0  0  0  0  0
   -9.3269   -4.0640  -24.7540 N   0  0  0  0  0  0  0  0  0  0  0  0
   -9.2918   -4.6849  -25.9918 C   0  0  0  0  0  0  0  0  0  0  0  0
  -10.4939   -5.0608  -26.6146 C   0  0  0  0  0  0  0  0  0  0  0  0
  -10.5036   -5.6134  -27.8883 C   0  0  0  0  0  0  0  0  0  0  0  0
   -9.3131   -5.8752  -28.5586 C   0  0  0  0  0  0  0  0  0  0  0  0
   -8.1154   -5.5768  -27.9160 C   0  0  0  0  0  0  0  0  0  0  0  0
   -8.0892   -4.9836  -26.6557 C   0  0  0  0  0  0  0  0  0  0  0  0
   -7.1268   -4.7644  -26.1956 H   0  0  0  0  0  0  0  0  0  0  0  0
   -7.1759   -5.8169  -28.4084 H   0  0  0  0  0  0  0  0  0  0  0  0
   -9.3165   -6.3201  -29.5525 H   0  0  0  0  0  0  0  0  0  0  0  0
  -11.4497   -5.8505  -28.3702 H   0  0  0  0  0  0  0  0  0  0  0  0
  -11.4222   -4.9592  -26.0665 H   0  0  0  0  0  0  0  0  0  0  0  0
  -10.2215   -3.7092  -24.4508 H   0  0  0  0  0  0  0  0  0  0  0  0
   -7.5276   -4.5056  -23.8203 H   0  0  0  0  0  0  0  0  0  0  0  0
   -7.5018   -2.9979  -24.7357 H   0  0  0  0  0  0  0  0  0  0  0  0
   -9.0414   -3.5102  -22.1599 H   0  0  0  0  0  0  0  0  0  0  0  0
   -6.8561   -3.4212  -21.3520 H   0  0  0  0  0  0  0  0  0  0  0  0
   -6.2728   -2.4273  -22.7032 H   0  0  0  0  0  0  0  0  0  0  0  0
  -10.6509   -1.5284  -22.7700 C   0  0  0  0  0  0  0  0  0  0  0  0
  -11.2764   -2.4510  -21.9250 C   0  0  0  0  0  0  0  0  0  0  0  0
  -12.6507   -2.4476  -21.7807 C   0  0  0  0  0  0  0  0  0  0  0  0
  -13.3796   -3.5806  -20.6859 Cl  0  0  0  0  0  0  0  0  0  0  0  0
  -13.4590   -1.5357  -22.4568 C   0  0  0  0  0  0  0  0  0  0  0  0
  -12.8458   -0.5995  -23.2629 C   0  0  0  0  0  0  0  0  0  0  0  0
  -11.4593   -0.5727  -23.4012 C   0  0  0  0  0  0  0  0  0  0  0  0
  -10.8614    0.5653  -24.1697 C   0  0  0  0  0  0  0  0  0  0  0  0
  -11.5472    1.4692  -24.6284 O   0  0  0  0  0  0  0  0  0  0  0  0
  -13.4170    0.1605  -23.7816 H   0  0  0  0  0  0  0  0  0  0  0  0
  -14.5346   -1.5417  -22.3186 H   0  0  0  0  0  0  0  0  0  0  0  0
  -10.7084   -3.1536  -21.3274 H   0  0  0  0  0  0  0  0  0  0  0  0
   -7.6807   -0.4798  -24.1502 H   0  0  0  0  0  0  0  0  0  0  0  0
   -8.9516   -1.3427  -25.0287 H   0  0  0  0  0  0  0  0  0  0  0  0
   -8.3047    1.3661  -25.7970 H   0  0  0  0  0  0  0  0  0  0  0  0
   -9.5929    2.4090  -25.1563 H   0  0  0  0  0  0  0  0  0  0  0  0
   -9.2364    2.8123  -22.5503 H   0  0  0  0  0  0  0  0  0  0  0  0
   -6.7443    2.5464  -21.5069 H   0  0  0  0  0  0  0  0  0  0  0  0
   -7.8590    3.8928  -21.0373 H   0  0  0  0  0  0  0  0  0  0  0  0
   -6.6431    4.1477  -22.2846 H   0  0  0  0  0  0  0  0  0  0  0  0
  1  2  1  0
  2  3  1  0
  3  4  2  0
  3  5  1  0
  5  6  1  0
  6  7  1  0
  8  7  1  6
  8  9  1  0
  9 10  2  0
  9 11  1  0
 11 12  1  0
 12 13  2  0
 13 14  1  0
 14 15  2  0
 15 16  1  0
 16 17  2  0
 17 18  1  0
 18 19  2  0
 19 20  1  0
 20 21  2  0
 20 22  1  0
 19 23  1  0
 18 24  1  0
 17 25  1  0
 15 26  1  0
 13 27  1  0
 11 28  1  0
 28 29  1  0
 29 30  1  0
 30 31  1  0
 31 32  1  0
 32 33  2  0
 33 34  1  0
 34 35  2  0
 35 36  1  0
 36 37  2  0
 37 38  1  0
 36 39  1  0
 35 40  1  0
 34 41  1  0
 33 42  1  0
 31 43  1  0
 30 44  1  0
 30 45  1  0
 29 46  1  1
 28 47  1  0
 28 48  1  0
  8 49  1  0
 49 50  2  0
 50 51  1  0
 51 52  1  0
 51 53  2  0
 53 54  1  0
 54 55  2  0
 55 56  1  0
 56 57  2  0
 54 58  1  0
 53 59  1  0
 50 60  1  0
  7 61  1  0
  7 62  1  0
  5 63  1  0
  5 64  1  0
  2 65  1  0
  1 66  1  0
  1 67  1  0
  1 68  1  0
 56  6  1  0
 29  8  1  0
 37 32  1  0
 55 49  1  0
 21 12  1  0
 21 16  1  0
M  END
>  <cnnaffinities>  (23) 
[6.52383, 7.18869, 7.32438, 6.96299]

>  <score>  (23) 
6.52383

>  <index>  (23) 
23

>  <Smiles>  (23) 
C(N(C(=O)C(N1C([C@@]2(C(=O)N(c3c(nc(c4c(c(c(c(c34)[H])[H])[H])[H])[H])[H])C([C@@]2(C(N(c2c(c(c(c(c2[H])[H])[H])[H])[H])[H])([H])[H])[H])([H])[H])c2c(c(Cl)c(c(c2C1=O)[H])[H])[H])([H])[H])([H])[H])[H])([H])([H])[H]

>  <h>  (23) 
<NA>

>  <Training>  (23) 
True

>  <Success>  (23) 
True

>  <enamine_searched>  (23) 
False

>  <enamine_id>  (23) 
nan

$$$$

     RDKit          3D

 65 70  0  0  0  0  0  0  0  0999 V2000
  -12.8306   -2.1510  -22.2140 O   0  0  0  0  0  0  0  0  0  0  0  0
  -12.6802   -3.3301  -22.4955 C   0  0  0  0  0  0  0  0  0  0  0  0
  -11.5668   -3.8516  -23.4105 C   0  0  0  0  0  0  0  0  0  0  0  0
  -10.6064   -4.7074  -22.6080 N   0  0  1  0  0  4  0  0  0  0  0  0
   -9.7400   -5.6087  -23.4591 C   0  0  0  0  0  0  0  0  0  0  0  0
   -8.6520   -4.8670  -24.2041 C   0  0  0  0  0  0  0  0  0  0  0  0
   -8.0756   -5.4455  -25.3336 C   0  0  0  0  0  0  0  0  0  0  0  0
   -7.0599   -4.8112  -26.0360 C   0  0  0  0  0  0  0  0  0  0  0  0
   -6.6227   -3.5677  -25.5956 C   0  0  0  0  0  0  0  0  0  0  0  0
   -5.3396   -2.7608  -26.4521 Cl  0  0  0  0  0  0  0  0  0  0  0  0
   -7.1781   -2.9785  -24.4725 C   0  0  0  0  0  0  0  0  0  0  0  0
   -8.1917   -3.6276  -23.7559 C   0  0  0  0  0  0  0  0  0  0  0  0
   -8.6868   -2.9763  -22.4746 C   0  0  2  0  0  0  0  0  0  0  0  0
   -9.2448   -1.5403  -22.6748 C   0  0  0  0  0  0  0  0  0  0  0  0
   -8.3876   -0.5754  -21.8247 C   0  0  0  0  0  0  0  0  0  0  0  0
   -7.4099   -1.4415  -21.1861 N   0  0  0  0  0  0  0  0  0  0  0  0
   -6.4710   -1.0459  -20.1974 C   0  0  0  0  0  0  0  0  0  0  0  0
   -6.6435   -1.4414  -18.8943 C   0  0  0  0  0  0  0  0  0  0  0  0
   -5.7917   -1.1359  -17.8858 N   0  0  0  0  0  0  0  0  0  0  0  0
   -4.7257   -0.4364  -18.1808 C   0  0  0  0  0  0  0  0  0  0  0  0
   -4.4061    0.0060  -19.4953 C   0  0  0  0  0  0  0  0  0  0  0  0
   -3.2081    0.7139  -19.7725 C   0  0  0  0  0  0  0  0  0  0  0  0
   -2.9299    1.1328  -21.0432 C   0  0  0  0  0  0  0  0  0  0  0  0
   -3.8409    0.8711  -22.0913 C   0  0  0  0  0  0  0  0  0  0  0  0
   -5.0054    0.1845  -21.8501 C   0  0  0  0  0  0  0  0  0  0  0  0
   -5.3153   -0.2733  -20.5399 C   0  0  0  0  0  0  0  0  0  0  0  0
   -5.6972   -0.0116  -22.6646 H   0  0  0  0  0  0  0  0  0  0  0  0
   -3.6170    1.2160  -23.0956 H   0  0  0  0  0  0  0  0  0  0  0  0
   -2.0121    1.6734  -21.2555 H   0  0  0  0  0  0  0  0  0  0  0  0
   -2.5468    0.9426  -18.9421 H   0  0  0  0  0  0  0  0  0  0  0  0
   -4.0471   -0.1915  -17.3631 H   0  0  0  0  0  0  0  0  0  0  0  0
   -7.5109   -2.0344  -18.6125 H   0  0  0  0  0  0  0  0  0  0  0  0
   -7.4837   -2.7611  -21.5517 C   0  0  0  0  0  0  0  0  0  0  0  0
   -6.6983   -3.6188  -21.2062 O   0  0  0  0  0  0  0  0  0  0  0  0
   -7.9013    0.1855  -22.4467 H   0  0  0  0  0  0  0  0  0  0  0  0
   -8.9787   -0.0457  -21.0694 H   0  0  0  0  0  0  0  0  0  0  0  0
  -10.2967   -1.4917  -22.3662 H   0  0  0  0  0  0  0  0  0  0  0  0
   -9.2084   -1.2623  -23.7328 H   0  0  0  0  0  0  0  0  0  0  0  0
   -9.6733   -3.8780  -21.7030 C   0  0  0  0  0  0  0  0  0  0  0  0
  -10.2949   -3.2779  -21.0380 H   0  0  0  0  0  0  0  0  0  0  0  0
   -9.1085   -4.5920  -21.1065 H   0  0  0  0  0  0  0  0  0  0  0  0
   -6.8068   -2.0138  -24.1358 H   0  0  0  0  0  0  0  0  0  0  0  0
   -6.6099   -5.2718  -26.9100 H   0  0  0  0  0  0  0  0  0  0  0  0
   -8.4256   -6.4189  -25.6706 H   0  0  0  0  0  0  0  0  0  0  0  0
  -10.3730   -6.1460  -24.1700 H   0  0  0  0  0  0  0  0  0  0  0  0
   -9.2996   -6.3585  -22.7973 H   0  0  0  0  0  0  0  0  0  0  0  0
  -11.1829   -5.3028  -21.9774 H   0  0  0  0  0  0  0  0  0  0  0  0
  -11.0385   -3.0309  -23.8797 H   0  0  0  0  0  0  0  0  0  0  0  0
  -11.9809   -4.4848  -24.1997 H   0  0  0  0  0  0  0  0  0  0  0  0
  -13.4691   -4.3187  -21.9955 N   0  0  0  0  0  0  0  0  0  0  0  0
  -14.5874   -4.0209  -21.1077 C   0  0  0  0  0  0  0  0  0  0  0  0
  -15.1067   -5.3251  -20.5156 C   0  0  1  0  0  0  0  0  0  0  0  0
  -14.3749   -6.1841  -19.5604 C   0  0  0  0  0  0  0  0  0  0  0  0
  -16.2996   -5.8517  -19.7184 C   0  0  1  0  0  0  0  0  0  0  0  0
  -15.7413   -3.7139  -18.0185 F   0  0  0  0  0  0  0  0  0  0  0  0
  -16.3228   -5.7593  -19.5575 C   0  0  0  0  0  0  0  0  0  0  0  0
  -16.1690   -4.4419  -18.4539 H   0  0  0  0  0  0  0  0  0  0  0  0
  -17.5147   -5.8003  -19.8763 H   0  0  0  0  0  0  0  0  0  0  0  0
  -16.3901   -6.9897  -19.2327 H   0  0  0  0  0  0  0  0  0  0  0  0
  -13.5873   -5.8166  -18.8700 H   0  0  0  0  0  0  0  0  0  0  0  0
  -14.1598   -7.1954  -19.9326 H   0  0  0  0  0  0  0  0  0  0  0  0
  -15.4660   -6.0267  -21.2786 H   0  0  0  0  0  0  0  0  0  0  0  0
  -15.3031   -3.4328  -21.7009 H   0  0  0  0  0  0  0  0  0  0  0  0
  -14.2025   -3.3039  -20.3606 H   0  0  0  0  0  0  0  0  0  0  0  0
  -13.2676   -5.2679  -22.2719 H   0  0  0  0  0  0  0  0  0  0  0  0
  1  2  2  0
  2  3  1  0
  3  4  1  0
  4  5  1  0
  5  6  1  0
  6  7  2  0
  7  8  1  0
  8  9  2  0
  9 10  1  0
  9 11  1  0
 11 12  2  0
 12 13  1  0
 13 14  1  6
 14 15  1  0
 15 16  1  0
 16 17  1  0
 17 18  2  0
 18 19  1  0
 19 20  2  0
 20 21  1  0
 21 22  2  0
 22 23  1  0
 23 24  2  0
 24 25  1  0
 25 26  2  0
 25 27  1  0
 24 28  1  0
 23 29  1  0
 22 30  1  0
 20 31  1  0
 18 32  1  0
 16 33  1  0
 33 34  2  0
 15 35  1  0
 15 36  1  0
 14 37  1  0
 14 38  1  0
 13 39  1  0
 39 40  1  0
 39 41  1  0
 11 42  1  0
  8 43  1  0
  7 44  1  0
  5 45  1  0
  5 46  1  0
  4 47  1  1
  3 48  1  0
  3 49  1  0
  2 50  1  0
 50 51  1  0
 51 52  1  0
 52 53  1  0
 53 54  1  0
 54 55  1  0
 54 56  1  0
 56 57  1  0
 56 58  1  0
 54 59  1  1
 53 60  1  0
 53 61  1  0
 52 62  1  6
 51 63  1  0
 51 64  1  0
 50 65  1  0
 39  4  1  0
 56 52  1  0
 12  6  1  0
 33 13  1  0
 26 17  1  0
 26 21  1  0
M  CHG  1   4   1
M  END
>  <cnnaffinities>  (24) 
[6.74691]

>  <score>  (24) 
6.74691

>  <index>  (24) 
24

>  <Smiles>  (24) 
O=C(C([N@+]1(C(c2c(c(c(Cl)c(c2[C@@]2(C(C(N(c3c(nc(c4c(c(c(c(c34)[H])[H])[H])[H])[H])[H])C2=O)([H])[H])([H])[H])C1([H])[H])[H])[H])[H])([H])[H])[H])([H])[H])N(C([C@]1(C([C@@](F)(C1([H])[H])[H])([H])[H])[H])([H])[H])[H]

>  <h>  (24) 
<NA>

>  <Training>  (24) 
True

>  <Success>  (24) 
True

>  <enamine_searched>  (24) 
False

>  <enamine_id>  (24) 
nan

$$$$

     RDKit          3D

 70 75  0  0  0  0  0  0  0  0999 V2000
   -8.1742   -7.0604  -23.9249 O   0  0  0  0  0  0  0  0  0  0  0  0
   -8.0719   -6.3082  -22.9720 C   0  0  0  0  0  0  0  0  0  0  0  0
   -9.1666   -5.3244  -22.5632 C   0  0  0  0  0  0  0  0  0  0  0  0
   -8.7711   -3.9081  -22.8514 N   0  0  1  0  0  4  0  0  0  0  0  0
   -8.4188   -3.7316  -24.3309 C   0  0  0  0  0  0  0  0  0  0  0  0
   -8.1329   -2.2953  -24.6861 C   0  0  0  0  0  0  0  0  0  0  0  0
   -7.3409   -1.9927  -25.7937 C   0  0  0  0  0  0  0  0  0  0  0  0
   -7.0614   -0.6798  -26.1486 C   0  0  0  0  0  0  0  0  0  0  0  0
   -7.5758    0.3475  -25.3648 C   0  0  0  0  0  0  0  0  0  0  0  0
   -7.2221    2.0024  -25.7706 Cl  0  0  0  0  0  0  0  0  0  0  0  0
   -8.3557    0.0712  -24.2533 C   0  0  0  0  0  0  0  0  0  0  0  0
   -8.6526   -1.2535  -23.9224 C   0  0  0  0  0  0  0  0  0  0  0  0
   -9.4341   -1.4941  -22.6533 C   0  0  2  0  0  0  0  0  0  0  0  0
   -8.6401   -0.9911  -21.4497 C   0  0  0  0  0  0  0  0  0  0  0  0
   -9.0662   -0.1369  -20.6969 O   0  0  0  0  0  0  0  0  0  0  0  0
   -7.4135   -1.5932  -21.2674 N   0  0  0  0  0  0  0  0  0  0  0  0
   -6.5060   -1.1474  -20.2739 C   0  0  0  0  0  0  0  0  0  0  0  0
   -6.7298   -1.4605  -18.9574 C   0  0  0  0  0  0  0  0  0  0  0  0
   -5.8409   -1.2394  -17.9588 N   0  0  0  0  0  0  0  0  0  0  0  0
   -4.7218   -0.6299  -18.2566 C   0  0  0  0  0  0  0  0  0  0  0  0
   -4.4112   -0.1486  -19.5601 C   0  0  0  0  0  0  0  0  0  0  0  0
   -3.2304    0.5970  -19.8067 C   0  0  0  0  0  0  0  0  0  0  0  0
   -2.9912    1.1361  -21.0411 C   0  0  0  0  0  0  0  0  0  0  0  0
   -3.9270    0.9387  -22.0826 C   0  0  0  0  0  0  0  0  0  0  0  0
   -5.0521    0.1704  -21.8864 C   0  0  0  0  0  0  0  0  0  0  0  0
   -5.3276   -0.3913  -20.6069 C   0  0  0  0  0  0  0  0  0  0  0  0
   -5.7324   -0.0196  -22.7117 H   0  0  0  0  0  0  0  0  0  0  0  0
   -3.7671    1.4226  -23.0450 H   0  0  0  0  0  0  0  0  0  0  0  0
   -2.0927    1.7215  -21.2236 H   0  0  0  0  0  0  0  0  0  0  0  0
   -2.5508    0.7672  -18.9783 H   0  0  0  0  0  0  0  0  0  0  0  0
   -3.9982   -0.4748  -17.4550 H   0  0  0  0  0  0  0  0  0  0  0  0
   -7.6577   -1.9427  -18.6601 H   0  0  0  0  0  0  0  0  0  0  0  0
   -6.9978   -2.0469  -22.0684 H   0  0  0  0  0  0  0  0  0  0  0  0
   -9.8666   -2.9500  -22.4542 C   0  0  0  0  0  0  0  0  0  0  0  0
  -10.1317   -3.1217  -21.4071 H   0  0  0  0  0  0  0  0  0  0  0  0
  -10.7354   -3.1890  -23.0778 H   0  0  0  0  0  0  0  0  0  0  0  0
  -10.3322   -0.8828  -22.6525 H   0  0  0  0  0  0  0  0  0  0  0  0
   -8.7399    0.8762  -23.6328 H   0  0  0  0  0  0  0  0  0  0  0  0
   -6.4427   -0.4487  -27.0097 H   0  0  0  0  0  0  0  0  0  0  0  0
   -6.9434   -2.8023  -26.3973 H   0  0  0  0  0  0  0  0  0  0  0  0
   -9.2612   -4.1155  -24.9154 H   0  0  0  0  0  0  0  0  0  0  0  0
   -7.5583   -4.3597  -24.5638 H   0  0  0  0  0  0  0  0  0  0  0  0
   -7.9318   -3.7032  -22.2754 H   0  0  0  0  0  0  0  0  0  0  0  0
  -10.0712   -5.5878  -23.1143 H   0  0  0  0  0  0  0  0  0  0  0  0
   -9.3762   -5.4112  -21.4925 H   0  0  0  0  0  0  0  0  0  0  0  0
   -6.9544   -6.2395  -22.1843 N   0  0  0  0  0  0  0  0  0  0  0  0
   -5.7546   -6.9215  -22.4660 C   0  0  0  0  0  0  0  0  0  0  0  0
   -4.9786   -7.4071  -21.4196 C   0  0  0  0  0  0  0  0  0  0  0  0
   -3.7756   -8.0201  -21.7070 C   0  0  0  0  0  0  0  0  0  0  0  0
   -3.2982   -8.1231  -23.0089 C   0  0  0  0  0  0  0  0  0  0  0  0
   -2.0601   -8.7672  -23.2454 N   0  0  0  0  0  0  0  0  0  0  0  0
   -1.0698   -8.7803  -22.1705 C   0  0  0  0  0  0  0  0  0  0  0  0
    0.2804   -9.1522  -22.7466 C   0  0  0  0  0  0  0  0  0  0  0  0
    0.1958  -10.4287  -23.3343 O   0  0  0  0  0  0  0  0  0  0  0  0
   -0.6709  -10.4396  -24.4378 C   0  0  0  0  0  0  0  0  0  0  0  0
   -1.9761   -9.6723  -24.2764 C   0  0  0  0  0  0  0  0  0  0  0  0
   -2.8835   -9.8772  -25.0679 O   0  0  0  0  0  0  0  0  0  0  0  0
   -0.9490  -11.4766  -24.6172 H   0  0  0  0  0  0  0  0  0  0  0  0
   -0.1778  -10.0707  -25.3503 H   0  0  0  0  0  0  0  0  0  0  0  0
    1.0316   -9.2102  -21.9587 H   0  0  0  0  0  0  0  0  0  0  0  0
    0.6102   -8.3999  -23.4775 H   0  0  0  0  0  0  0  0  0  0  0  0
   -1.0307   -7.7861  -21.7175 H   0  0  0  0  0  0  0  0  0  0  0  0
   -1.3420   -9.5179  -21.3992 H   0  0  0  0  0  0  0  0  0  0  0  0
   -4.0755   -7.6257  -24.0516 C   0  0  0  0  0  0  0  0  0  0  0  0
   -5.3118   -7.0693  -23.7799 C   0  0  0  0  0  0  0  0  0  0  0  0
   -5.9523   -6.7660  -24.5985 H   0  0  0  0  0  0  0  0  0  0  0  0
   -3.7357   -7.6946  -25.0767 H   0  0  0  0  0  0  0  0  0  0  0  0
   -3.2219   -8.5000  -20.9048 H   0  0  0  0  0  0  0  0  0  0  0  0
   -5.3045   -7.3114  -20.3873 H   0  0  0  0  0  0  0  0  0  0  0  0
   -6.9979   -5.7159  -21.3224 H   0  0  0  0  0  0  0  0  0  0  0  0
  1  2  2  0
  2  3  1  0
  3  4  1  0
  4  5  1  0
  5  6  1  0
  6  7  2  0
  7  8  1  0
  8  9  2  0
  9 10  1  0
  9 11  1  0
 11 12  2  0
 12 13  1  0
 13 14  1  0
 14 15  2  0
 14 16  1  0
 16 17  1  0
 17 18  2  0
 18 19  1  0
 19 20  2  0
 20 21  1  0
 21 22  2  0
 22 23  1  0
 23 24  2  0
 24 25  1  0
 25 26  2  0
 25 27  1  0
 24 28  1  0
 23 29  1  0
 22 30  1  0
 20 31  1  0
 18 32  1  0
 16 33  1  0
 13 34  1  0
 34 35  1  0
 34 36  1  0
 13 37  1  6
 11 38  1  0
  8 39  1  0
  7 40  1  0
  5 41  1  0
  5 42  1  0
  4 43  1  1
  3 44  1  0
  3 45  1  0
  2 46  1  0
 46 47  1  0
 47 48  2  0
 48 49  1  0
 49 50  2  0
 50 51  1  0
 51 52  1  0
 52 53  1  0
 53 54  1  0
 54 55  1  0
 55 56  1  0
 56 57  2  0
 55 58  1  0
 55 59  1  0
 53 60  1  0
 53 61  1  0
 52 62  1  0
 52 63  1  0
 50 64  1  0
 64 65  2  0
 65 66  1  0
 64 67  1  0
 49 68  1  0
 48 69  1  0
 46 70  1  0
 34  4  1  0
 65 47  1  0
 12  6  1  0
 26 17  1  0
 56 51  1  0
 26 21  1  0
M  CHG  1   4   1
M  END
>  <cnnaffinities>  (25) 
[6.38003, 6.40686]

>  <score>  (25) 
6.38003

>  <index>  (25) 
25

>  <Smiles>  (25) 
O=C(C([N@+]1(C(c2c(c(c(Cl)c(c2[C@](C(=O)N(c2c(nc(c3c(c(c(c(c23)[H])[H])[H])[H])[H])[H])[H])(C1([H])[H])[H])[H])[H])[H])([H])[H])[H])([H])[H])N(c1c(c(c(N2C(C(OC(C2=O)([H])[H])([H])[H])([H])[H])c(c1[H])[H])[H])[H])[H]

>  <h>  (25) 
<NA>

>  <Training>  (25) 
True

>  <Success>  (25) 
True

>  <enamine_searched>  (25) 
False

>  <enamine_id>  (25) 
nan

$$$$

     RDKit          3D

 55 60  0  0  0  0  0  0  0  0999 V2000
   -8.6485   -4.2162  -23.7317 C   0  0  0  0  0  0  0  0  0  0  0  0
   -8.6510   -3.2996  -22.5142 C   0  0  1  0  0  0  0  0  0  0  0  0
   -7.2588   -2.7970  -22.1225 C   0  0  0  0  0  0  0  0  0  0  0  0
   -7.5768   -1.7115  -21.2203 N   0  0  0  0  0  0  0  0  0  0  0  0
   -6.6778   -1.2863  -20.2071 C   0  0  0  0  0  0  0  0  0  0  0  0
   -6.8304   -1.6869  -18.9049 C   0  0  0  0  0  0  0  0  0  0  0  0
   -5.9151   -1.4746  -17.9274 N   0  0  0  0  0  0  0  0  0  0  0  0
   -4.8069   -0.8534  -18.2484 C   0  0  0  0  0  0  0  0  0  0  0  0
   -4.5087   -0.3992  -19.5635 C   0  0  0  0  0  0  0  0  0  0  0  0
   -3.2723    0.2161  -19.8961 C   0  0  0  0  0  0  0  0  0  0  0  0
   -3.0402    0.6730  -21.1675 C   0  0  0  0  0  0  0  0  0  0  0  0
   -4.0562    0.5839  -22.1474 C   0  0  0  0  0  0  0  0  0  0  0  0
   -5.2623    0.0059  -21.8426 C   0  0  0  0  0  0  0  0  0  0  0  0
   -5.4954   -0.5602  -20.5605 C   0  0  0  0  0  0  0  0  0  0  0  0
   -6.0805    0.0207  -22.5564 H   0  0  0  0  0  0  0  0  0  0  0  0
   -3.8841    0.9912  -23.1418 H   0  0  0  0  0  0  0  0  0  0  0  0
   -2.0891    1.1332  -21.4248 H   0  0  0  0  0  0  0  0  0  0  0  0
   -2.5177    0.3217  -19.1232 H   0  0  0  0  0  0  0  0  0  0  0  0
   -4.0769   -0.6886  -17.4552 H   0  0  0  0  0  0  0  0  0  0  0  0
   -7.7222   -2.2345  -18.6077 H   0  0  0  0  0  0  0  0  0  0  0  0
   -8.8318   -1.1706  -21.4353 C   0  0  0  0  0  0  0  0  0  0  0  0
   -9.2626   -0.1825  -20.8898 O   0  0  0  0  0  0  0  0  0  0  0  0
   -9.5398   -2.0233  -22.5428 C   0  0  1  0  0  0  0  0  0  0  0  0
   -9.4377   -1.2461  -23.8707 C   0  0  0  0  0  0  0  0  0  0  0  0
  -10.2428   -0.0381  -23.8086 N   0  0  0  0  0  0  0  0  0  0  0  0
   -9.8390    0.9946  -24.7344 C   0  0  0  0  0  0  0  0  0  0  0  0
  -10.0630    0.5682  -26.1559 C   0  0  0  0  0  0  0  0  0  0  0  0
  -11.1486   -0.1282  -26.7164 C   0  0  0  0  0  0  0  0  0  0  0  0
  -10.9365   -0.2780  -28.0197 N   0  0  0  0  0  0  0  0  0  0  0  0
   -9.7550    0.2847  -28.1878 N   0  0  0  0  0  0  0  0  0  0  0  0
   -9.1884    0.8140  -27.1181 N   0  0  0  0  0  0  0  0  0  0  0  0
   -9.3847    0.4599  -29.1117 H   0  0  0  0  0  0  0  0  0  0  0  0
  -12.0454   -0.4886  -26.2414 H   0  0  0  0  0  0  0  0  0  0  0  0
   -8.7730    1.1911  -24.5745 H   0  0  0  0  0  0  0  0  0  0  0  0
  -10.4192    1.8865  -24.4838 H   0  0  0  0  0  0  0  0  0  0  0  0
  -11.5737   -0.0998  -23.4827 C   0  0  0  0  0  0  0  0  0  0  0  0
  -12.3717    0.7717  -23.8041 O   0  0  0  0  0  0  0  0  0  0  0  0
  -11.9854   -1.3230  -22.7344 C   0  0  0  0  0  0  0  0  0  0  0  0
  -13.3522   -1.5222  -22.5165 C   0  0  0  0  0  0  0  0  0  0  0  0
  -13.7944   -2.5646  -21.7340 C   0  0  0  0  0  0  0  0  0  0  0  0
  -12.8331   -3.4013  -21.1896 C   0  0  0  0  0  0  0  0  0  0  0  0
  -13.2326   -4.3115  -20.2890 F   0  0  0  0  0  0  0  0  0  0  0  0
  -11.4940   -3.3183  -21.5214 C   0  0  0  0  0  0  0  0  0  0  0  0
  -11.0275   -2.2473  -22.2865 C   0  0  0  0  0  0  0  0  0  0  0  0
  -10.8200   -4.0504  -21.0958 H   0  0  0  0  0  0  0  0  0  0  0  0
  -14.8453   -2.7606  -21.5494 H   0  0  0  0  0  0  0  0  0  0  0  0
  -14.0506   -0.8253  -22.9658 H   0  0  0  0  0  0  0  0  0  0  0  0
   -8.4086   -0.9413  -24.0702 H   0  0  0  0  0  0  0  0  0  0  0  0
   -9.7434   -1.8832  -24.7145 H   0  0  0  0  0  0  0  0  0  0  0  0
   -6.6884   -2.4667  -23.0086 H   0  0  0  0  0  0  0  0  0  0  0  0
   -6.6610   -3.5571  -21.6110 H   0  0  0  0  0  0  0  0  0  0  0  0
   -8.9977   -3.8687  -21.6475 H   0  0  0  0  0  0  0  0  0  0  0  0
   -9.6330   -4.6714  -23.8826 H   0  0  0  0  0  0  0  0  0  0  0  0
   -7.9175   -5.0262  -23.6009 H   0  0  0  0  0  0  0  0  0  0  0  0
   -8.3758   -3.6709  -24.6432 H   0  0  0  0  0  0  0  0  0  0  0  0
  1  2  1  0
  2  3  1  0
  3  4  1  0
  4  5  1  0
  5  6  2  0
  6  7  1  0
  7  8  2  0
  8  9  1  0
  9 10  2  0
 10 11  1  0
 11 12  2  0
 12 13  1  0
 13 14  2  0
 13 15  1  0
 12 16  1  0
 11 17  1  0
 10 18  1  0
  8 19  1  0
  6 20  1  0
  4 21  1  0
 21 22  2  0
 21 23  1  0
 23 24  1  6
 24 25  1  0
 25 26  1  0
 26 27  1  0
 27 28  1  0
 28 29  2  0
 29 30  1  0
 30 31  1  0
 30 32  1  0
 28 33  1  0
 26 34  1  0
 26 35  1  0
 25 36  1  0
 36 37  2  0
 36 38  1  0
 38 39  2  0
 39 40  1  0
 40 41  2  0
 41 42  1  0
 41 43  1  0
 43 44  2  0
 43 45  1  0
 40 46  1  0
 39 47  1  0
 24 48  1  0
 24 49  1  0
  3 50  1  0
  3 51  1  0
  2 52  1  1
  1 53  1  0
  1 54  1  0
  1 55  1  0
 23  2  1  0
 31 27  2  0
 44 38  1  0
 14  5  1  0
 44 23  1  0
 14  9  1  0
M  END
>  <cnnaffinities>  (26) 
[6.29391, 6.5622]

>  <score>  (26) 
6.29391

>  <index>  (26) 
26

>  <Smiles>  (26) 
C([C@]1(C(N(c2c(nc(c3c(c(c(c(c23)[H])[H])[H])[H])[H])[H])C(=O)[C@]21C(N(C(c1c(nn(n1)[H])[H])([H])[H])C(=O)c1c(c(c(F)c(c21)[H])[H])[H])([H])[H])([H])[H])[H])([H])([H])[H]

>  <h>  (26) 
<NA>

>  <Training>  (26) 
True

>  <Success>  (26) 
True

>  <enamine_searched>  (26) 
False

>  <enamine_id>  (26) 
nan

$$$$

     RDKit          3D

 58 62  0  0  0  0  0  0  0  0999 V2000
   -7.0735    3.4585  -22.0260 C   0  0  0  0  0  0  0  0  0  0  0  0
   -7.4455    2.4008  -22.9649 N   0  0  0  0  0  4  0  0  0  0  0  0
   -8.4693    2.8023  -23.9544 C   0  0  0  0  0  0  0  0  0  0  0  0
   -8.7311    1.6845  -24.9613 C   0  0  0  0  0  0  0  0  0  0  0  0
   -9.3773    0.5316  -24.3434 N   0  0  0  0  0  0  0  0  0  0  0  0
   -8.6620   -0.7196  -24.1834 C   0  0  0  0  0  0  0  0  0  0  0  0
   -9.0488   -1.4645  -22.8767 C   0  0  2  0  0  0  0  0  0  0  0  0
   -8.3866   -0.6835  -21.7141 C   0  0  0  0  0  0  0  0  0  0  0  0
   -8.5926    0.4910  -21.4300 O   0  0  0  0  0  0  0  0  0  0  0  0
   -7.4153   -1.4609  -21.1446 N   0  0  0  0  0  0  0  0  0  0  0  0
   -6.5124   -0.9776  -20.1598 C   0  0  0  0  0  0  0  0  0  0  0  0
   -6.6955   -1.3467  -18.8499 C   0  0  0  0  0  0  0  0  0  0  0  0
   -5.7864   -1.1452  -17.8715 N   0  0  0  0  0  0  0  0  0  0  0  0
   -4.6719   -0.5450  -18.2082 C   0  0  0  0  0  0  0  0  0  0  0  0
   -4.3961   -0.0297  -19.5088 C   0  0  0  0  0  0  0  0  0  0  0  0
   -3.1979    0.6856  -19.7899 C   0  0  0  0  0  0  0  0  0  0  0  0
   -2.9845    1.2233  -21.0303 C   0  0  0  0  0  0  0  0  0  0  0  0
   -3.9351    1.0276  -22.0548 C   0  0  0  0  0  0  0  0  0  0  0  0
   -5.0551    0.2598  -21.8316 C   0  0  0  0  0  0  0  0  0  0  0  0
   -5.3431   -0.2440  -20.5294 C   0  0  0  0  0  0  0  0  0  0  0  0
   -5.6943   -0.0194  -22.6623 H   0  0  0  0  0  0  0  0  0  0  0  0
   -3.7833    1.4899  -23.0264 H   0  0  0  0  0  0  0  0  0  0  0  0
   -2.0952    1.8177  -21.2248 H   0  0  0  0  0  0  0  0  0  0  0  0
   -2.5079    0.8614  -18.9735 H   0  0  0  0  0  0  0  0  0  0  0  0
   -3.9246   -0.4186  -17.4273 H   0  0  0  0  0  0  0  0  0  0  0  0
   -7.6217   -1.8187  -18.5347 H   0  0  0  0  0  0  0  0  0  0  0  0
   -7.0504   -2.5949  -21.9723 C   0  0  0  0  0  0  0  0  0  0  0  0
   -8.3306   -2.8477  -22.7771 C   0  0  2  0  0  0  0  0  0  0  0  0
   -8.0410   -3.5669  -24.0922 C   0  0  0  0  0  0  0  0  0  0  0  0
   -7.5726   -4.5418  -23.9134 H   0  0  0  0  0  0  0  0  0  0  0  0
   -8.9497   -3.7290  -24.6812 H   0  0  0  0  0  0  0  0  0  0  0  0
   -7.3434   -2.9877  -24.7099 H   0  0  0  0  0  0  0  0  0  0  0  0
   -8.9510   -3.4943  -22.1546 H   0  0  0  0  0  0  0  0  0  0  0  0
   -6.7435   -3.4523  -21.3638 H   0  0  0  0  0  0  0  0  0  0  0  0
   -6.2045   -2.3637  -22.6398 H   0  0  0  0  0  0  0  0  0  0  0  0
  -10.5714   -1.5233  -22.7817 C   0  0  0  0  0  0  0  0  0  0  0  0
  -11.2396   -2.5185  -22.0463 C   0  0  0  0  0  0  0  0  0  0  0  0
  -12.6188   -2.5233  -21.9856 C   0  0  0  0  0  0  0  0  0  0  0  0
  -13.2331   -3.4865  -21.2726 F   0  0  0  0  0  0  0  0  0  0  0  0
  -13.3953   -1.5688  -22.6322 C   0  0  0  0  0  0  0  0  0  0  0  0
  -12.7488   -0.5754  -23.3411 C   0  0  0  0  0  0  0  0  0  0  0  0
  -11.3536   -0.5386  -23.4090 C   0  0  0  0  0  0  0  0  0  0  0  0
  -10.7294    0.6048  -24.1583 C   0  0  0  0  0  0  0  0  0  0  0  0
  -11.3959    1.5451  -24.5725 O   0  0  0  0  0  0  0  0  0  0  0  0
  -13.3137    0.1990  -23.8520 H   0  0  0  0  0  0  0  0  0  0  0  0
  -14.4753   -1.6163  -22.5539 H   0  0  0  0  0  0  0  0  0  0  0  0
  -10.7163   -3.2896  -21.4909 H   0  0  0  0  0  0  0  0  0  0  0  0
   -8.8685   -1.3676  -25.0430 H   0  0  0  0  0  0  0  0  0  0  0  0
   -7.5857   -0.5130  -24.1553 H   0  0  0  0  0  0  0  0  0  0  0  0
   -7.7909    1.3570  -25.4220 H   0  0  0  0  0  0  0  0  0  0  0  0
   -9.3967    2.0406  -25.7509 H   0  0  0  0  0  0  0  0  0  0  0  0
   -9.4069    3.0382  -23.4454 H   0  0  0  0  0  0  0  0  0  0  0  0
   -8.1513    3.7127  -24.4735 H   0  0  0  0  0  0  0  0  0  0  0  0
   -6.5834    2.1227  -23.4686 H   0  0  0  0  0  0  0  0  0  0  0  0
   -7.7887    1.5792  -22.4339 H   0  0  0  0  0  0  0  0  0  0  0  0
   -6.1985    3.1492  -21.4500 H   0  0  0  0  0  0  0  0  0  0  0  0
   -7.8992    3.6651  -21.3432 H   0  0  0  0  0  0  0  0  0  0  0  0
   -6.8365    4.3878  -22.5537 H   0  0  0  0  0  0  0  0  0  0  0  0
  1  2  1  0
  2  3  1  0
  3  4  1  0
  4  5  1  0
  5  6  1  0
  7  6  1  6
  7  8  1  0
  8  9  2  0
  8 10  1  0
 10 11  1  0
 11 12  2  0
 12 13  1  0
 13 14  2  0
 14 15  1  0
 15 16  2  0
 16 17  1  0
 17 18  2  0
 18 19  1  0
 19 20  2  0
 19 21  1  0
 18 22  1  0
 17 23  1  0
 16 24  1  0
 14 25  1  0
 12 26  1  0
 10 27  1  0
 27 28  1  0
 28 29  1  0
 29 30  1  0
 29 31  1  0
 29 32  1  0
 28 33  1  1
 27 34  1  0
 27 35  1  0
  7 36  1  0
 36 37  2  0
 37 38  1  0
 38 39  1  0
 38 40  2  0
 40 41  1  0
 41 42  2  0
 42 43  1  0
 43 44  2  0
 41 45  1  0
 40 46  1  0
 37 47  1  0
  6 48  1  0
  6 49  1  0
  4 50  1  0
  4 51  1  0
  3 52  1  0
  3 53  1  0
  2 54  1  0
  2 55  1  0
  1 56  1  0
  1 57  1  0
  1 58  1  0
 43  5  1  0
 28  7  1  0
 42 36  1  0
 20 11  1  0
 20 15  1  0
M  CHG  1   2   1
M  END
>  <cnnaffinities>  (27) 
[6.52423]

>  <score>  (27) 
6.52423

>  <index>  (27) 
27

>  <Smiles>  (27) 
C([N+](C(C(N1C([C@@]2(C(=O)N(c3c(nc(c4c(c(c(c(c34)[H])[H])[H])[H])[H])[H])C([C@@]2(C([H])([H])[H])[H])([H])[H])c2c(c(F)c(c(c2C1=O)[H])[H])[H])([H])[H])([H])[H])([H])[H])([H])[H])([H])([H])[H]

>  <h>  (27) 
<NA>

>  <Training>  (27) 
True

>  <Success>  (27) 
True

>  <enamine_searched>  (27) 
False

>  <enamine_id>  (27) 
nan

$$$$

     RDKit          3D

 64 68  0  0  0  0  0  0  0  0999 V2000
   -5.0016   -3.9590  -19.6592 C   0  0  0  0  0  0  0  0  0  0  0  0
   -5.5029   -4.6357  -20.8311 N   0  0  0  0  0  0  0  0  0  0  0  0
   -5.9648   -5.9002  -20.7801 C   0  0  0  0  0  0  0  0  0  0  0  0
   -5.6589   -6.7077  -19.9144 O   0  0  0  0  0  0  0  0  0  0  0  0
   -6.9936   -6.3043  -21.8438 C   0  0  0  0  0  0  0  0  0  0  0  0
   -7.3276   -5.3106  -22.8442 N   0  0  0  0  0  0  0  0  0  0  0  0
   -8.2977   -4.2762  -22.5049 C   0  0  0  0  0  0  0  0  0  0  0  0
   -8.0023   -2.9268  -23.2105 C   0  0  2  0  0  0  0  0  0  0  0  0
   -6.8473   -2.2241  -22.4732 C   0  0  0  0  0  0  0  0  0  0  0  0
   -5.6593   -2.4521  -22.6287 O   0  0  0  0  0  0  0  0  0  0  0  0
   -7.3597   -1.3637  -21.5152 N   0  0  0  0  0  0  0  0  0  0  0  0
   -6.5595   -0.9570  -20.4290 C   0  0  0  0  0  0  0  0  0  0  0  0
   -6.8724   -1.3195  -19.1389 C   0  0  0  0  0  0  0  0  0  0  0  0
   -6.0253   -1.2043  -18.1008 N   0  0  0  0  0  0  0  0  0  0  0  0
   -4.8437   -0.6726  -18.3362 C   0  0  0  0  0  0  0  0  0  0  0  0
   -4.4323   -0.1761  -19.5971 C   0  0  0  0  0  0  0  0  0  0  0  0
   -3.1581    0.4015  -19.8030 C   0  0  0  0  0  0  0  0  0  0  0  0
   -2.8071    0.9404  -21.0171 C   0  0  0  0  0  0  0  0  0  0  0  0
   -3.7274    0.9197  -22.0798 C   0  0  0  0  0  0  0  0  0  0  0  0
   -4.9679    0.3526  -21.9112 C   0  0  0  0  0  0  0  0  0  0  0  0
   -5.3322   -0.2605  -20.6795 C   0  0  0  0  0  0  0  0  0  0  0  0
   -5.6736    0.3478  -22.7341 H   0  0  0  0  0  0  0  0  0  0  0  0
   -3.4538    1.3496  -23.0405 H   0  0  0  0  0  0  0  0  0  0  0  0
   -1.8347    1.4020  -21.1543 H   0  0  0  0  0  0  0  0  0  0  0  0
   -2.4781    0.4487  -18.9630 H   0  0  0  0  0  0  0  0  0  0  0  0
   -4.1516   -0.6454  -17.5002 H   0  0  0  0  0  0  0  0  0  0  0  0
   -7.8156   -1.8069  -18.9026 H   0  0  0  0  0  0  0  0  0  0  0  0
   -8.8185   -1.4388  -21.4813 C   0  0  0  0  0  0  0  0  0  0  0  0
   -9.1027   -1.8715  -22.9242 C   0  0  2  0  0  0  0  0  0  0  0  0
  -10.5371   -2.2763  -23.2290 C   0  0  0  0  0  0  0  0  0  0  0  0
  -11.5369   -0.8750  -23.7141 S   0  0  0  0  0  0  0  0  0  0  0  0
  -11.4783    0.1430  -22.6765 O   0  0  0  0  0  0  0  0  0  0  0  0
  -12.8178   -1.3809  -24.1846 O   0  0  0  0  0  0  0  0  0  0  0  0
  -10.6584   -0.2290  -24.9731 N   0  0  0  0  0  0  0  0  0  0  0  0
  -10.9334   -0.6149  -26.3472 C   0  0  0  0  0  0  0  0  0  0  0  0
  -10.6046    0.1957  -26.9967 H   0  0  0  0  0  0  0  0  0  0  0  0
  -10.3439   -1.5003  -26.5945 H   0  0  0  0  0  0  0  0  0  0  0  0
  -11.9921   -0.8237  -26.5218 H   0  0  0  0  0  0  0  0  0  0  0  0
  -10.5570    0.7595  -24.7748 H   0  0  0  0  0  0  0  0  0  0  0  0
  -10.6004   -2.9942  -24.0556 H   0  0  0  0  0  0  0  0  0  0  0  0
  -11.0191   -2.7111  -22.3477 H   0  0  0  0  0  0  0  0  0  0  0  0
   -8.8317   -1.0063  -23.5339 H   0  0  0  0  0  0  0  0  0  0  0  0
   -9.1652   -2.2119  -20.7781 H   0  0  0  0  0  0  0  0  0  0  0  0
   -9.2713   -0.4860  -21.2076 H   0  0  0  0  0  0  0  0  0  0  0  0
   -7.7125   -3.1866  -24.6704 C   0  0  0  0  0  0  0  0  0  0  0  0
   -7.8359   -2.1623  -25.6237 C   0  0  0  0  0  0  0  0  0  0  0  0
   -7.4446   -2.3742  -26.9326 C   0  0  0  0  0  0  0  0  0  0  0  0
   -7.5188   -1.0394  -28.0573 Cl  0  0  0  0  0  0  0  0  0  0  0  0
   -6.9902   -3.6153  -27.3679 C   0  0  0  0  0  0  0  0  0  0  0  0
   -6.9157   -4.6436  -26.4479 C   0  0  0  0  0  0  0  0  0  0  0  0
   -7.2470   -4.4376  -25.1076 C   0  0  0  0  0  0  0  0  0  0  0  0
   -7.0727   -5.5990  -24.1666 C   0  0  0  0  0  0  0  0  0  0  0  0
   -6.6916   -6.6956  -24.5517 O   0  0  0  0  0  0  0  0  0  0  0  0
   -6.5823   -5.6296  -26.7512 H   0  0  0  0  0  0  0  0  0  0  0  0
   -6.6921   -3.7472  -28.4027 H   0  0  0  0  0  0  0  0  0  0  0  0
   -8.2438   -1.1913  -25.3644 H   0  0  0  0  0  0  0  0  0  0  0  0
   -8.2832   -4.1235  -21.4264 H   0  0  0  0  0  0  0  0  0  0  0  0
   -9.3030   -4.6249  -22.7769 H   0  0  0  0  0  0  0  0  0  0  0  0
   -6.6364   -7.1885  -22.3730 H   0  0  0  0  0  0  0  0  0  0  0  0
   -7.8931   -6.6147  -21.2979 H   0  0  0  0  0  0  0  0  0  0  0  0
   -5.6365   -4.0785  -21.6641 H   0  0  0  0  0  0  0  0  0  0  0  0
   -4.2388   -4.5482  -19.1686 H   0  0  0  0  0  0  0  0  0  0  0  0
   -4.5848   -2.9876  -19.9454 H   0  0  0  0  0  0  0  0  0  0  0  0
   -5.7913   -3.7740  -18.9252 H   0  0  0  0  0  0  0  0  0  0  0  0
  1  2  1  0
  2  3  1  0
  3  4  2  0
  3  5  1  0
  5  6  1  0
  6  7  1  0
  8  7  1  1
  8  9  1  0
  9 10  2  0
  9 11  1  0
 11 12  1  0
 12 13  2  0
 13 14  1  0
 14 15  2  0
 15 16  1  0
 16 17  2  0
 17 18  1  0
 18 19  2  0
 19 20  1  0
 20 21  2  0
 20 22  1  0
 19 23  1  0
 18 24  1  0
 17 25  1  0
 15 26  1  0
 13 27  1  0
 11 28  1  0
 28 29  1  0
 29 30  1  0
 30 31  1  0
 31 32  2  0
 31 33  2  0
 31 34  1  0
 34 35  1  0
 35 36  1  0
 35 37  1  0
 35 38  1  0
 34 39  1  0
 30 40  1  0
 30 41  1  0
 29 42  1  6
 28 43  1  0
 28 44  1  0
  8 45  1  0
 45 46  2  0
 46 47  1  0
 47 48  1  0
 47 49  2  0
 49 50  1  0
 50 51  2  0
 51 52  1  0
 52 53  2  0
 50 54  1  0
 49 55  1  0
 46 56  1  0
  7 57  1  0
  7 58  1  0
  5 59  1  0
  5 60  1  0
  2 61  1  0
  1 62  1  0
  1 63  1  0
  1 64  1  0
 52  6  1  0
 29  8  1  0
 51 45  1  0
 21 12  1  0
 21 16  1  0
M  END
>  <cnnaffinities>  (28) 
[6.5875]

>  <score>  (28) 
6.5875

>  <index>  (28) 
28

>  <Smiles>  (28) 
C(N(C(=O)C(N1C([C@@]2(C(=O)N(c3c(nc(c4c(c(c(c(c34)[H])[H])[H])[H])[H])[H])C([C@@]2(C(S(=O)(=O)N(C([H])([H])[H])[H])([H])[H])[H])([H])[H])c2c(c(Cl)c(c(c2C1=O)[H])[H])[H])([H])[H])([H])[H])[H])([H])([H])[H]

>  <h>  (28) 
<NA>

>  <Training>  (28) 
True

>  <Success>  (28) 
True

>  <enamine_searched>  (28) 
False

>  <enamine_id>  (28) 
nan

$$$$

     RDKit          3D

 55 60  0  0  0  0  0  0  0  0999 V2000
   -8.6497   -4.2167  -23.7315 C   0  0  0  0  0  0  0  0  0  0  0  0
   -8.6521   -3.2996  -22.5146 C   0  0  1  0  0  0  0  0  0  0  0  0
   -7.2598   -2.7977  -22.1230 C   0  0  0  0  0  0  0  0  0  0  0  0
   -7.5772   -1.7123  -21.2204 N   0  0  0  0  0  0  0  0  0  0  0  0
   -6.6782   -1.2873  -20.2070 C   0  0  0  0  0  0  0  0  0  0  0  0
   -6.8301   -1.6879  -18.9047 C   0  0  0  0  0  0  0  0  0  0  0  0
   -5.9150   -1.4758  -17.9270 N   0  0  0  0  0  0  0  0  0  0  0  0
   -4.8069   -0.8546  -18.2488 C   0  0  0  0  0  0  0  0  0  0  0  0
   -4.5091   -0.4001  -19.5639 C   0  0  0  0  0  0  0  0  0  0  0  0
   -3.2723    0.2147  -19.8964 C   0  0  0  0  0  0  0  0  0  0  0  0
   -3.0402    0.6714  -21.1680 C   0  0  0  0  0  0  0  0  0  0  0  0
   -4.0563    0.5828  -22.1476 C   0  0  0  0  0  0  0  0  0  0  0  0
   -5.2628    0.0054  -21.8425 C   0  0  0  0  0  0  0  0  0  0  0  0
   -5.4960   -0.5611  -20.5605 C   0  0  0  0  0  0  0  0  0  0  0  0
   -6.0815    0.0215  -22.5557 H   0  0  0  0  0  0  0  0  0  0  0  0
   -3.8843    0.9900  -23.1423 H   0  0  0  0  0  0  0  0  0  0  0  0
   -2.0886    1.1309  -21.4256 H   0  0  0  0  0  0  0  0  0  0  0  0
   -2.5174    0.3204  -19.1236 H   0  0  0  0  0  0  0  0  0  0  0  0
   -4.0772   -0.6898  -17.4556 H   0  0  0  0  0  0  0  0  0  0  0  0
   -7.7219   -2.2356  -18.6079 H   0  0  0  0  0  0  0  0  0  0  0  0
   -8.8317   -1.1705  -21.4360 C   0  0  0  0  0  0  0  0  0  0  0  0
   -9.2623   -0.1821  -20.8898 O   0  0  0  0  0  0  0  0  0  0  0  0
   -9.5402   -2.0227  -22.5432 C   0  0  1  0  0  0  0  0  0  0  0  0
   -9.4378   -1.2452  -23.8708 C   0  0  0  0  0  0  0  0  0  0  0  0
  -10.2422   -0.0372  -23.8098 N   0  0  0  0  0  0  0  0  0  0  0  0
   -9.8377    0.9950  -24.7360 C   0  0  0  0  0  0  0  0  0  0  0  0
  -10.0625    0.5683  -26.1569 C   0  0  0  0  0  0  0  0  0  0  0  0
  -11.1470   -0.1295  -26.7174 C   0  0  0  0  0  0  0  0  0  0  0  0
  -10.9354   -0.2787  -28.0210 N   0  0  0  0  0  0  0  0  0  0  0  0
   -9.7544    0.2853  -28.1890 N   0  0  0  0  0  0  0  0  0  0  0  0
   -9.1881    0.8149  -27.1191 N   0  0  0  0  0  0  0  0  0  0  0  0
   -9.3846    0.4604  -29.1125 H   0  0  0  0  0  0  0  0  0  0  0  0
  -12.0435   -0.4901  -26.2424 H   0  0  0  0  0  0  0  0  0  0  0  0
   -8.7714    1.1907  -24.5759 H   0  0  0  0  0  0  0  0  0  0  0  0
  -10.4175    1.8876  -24.4852 H   0  0  0  0  0  0  0  0  0  0  0  0
  -11.5730   -0.0983  -23.4832 C   0  0  0  0  0  0  0  0  0  0  0  0
  -12.3707    0.7738  -23.8043 O   0  0  0  0  0  0  0  0  0  0  0  0
  -11.9855   -1.3216  -22.7349 C   0  0  0  0  0  0  0  0  0  0  0  0
  -13.3524   -1.5207  -22.5179 C   0  0  0  0  0  0  0  0  0  0  0  0
  -13.7949   -2.5632  -21.7350 C   0  0  0  0  0  0  0  0  0  0  0  0
  -12.8338   -3.3999  -21.1905 C   0  0  0  0  0  0  0  0  0  0  0  0
  -13.2338   -4.3105  -20.2905 F   0  0  0  0  0  0  0  0  0  0  0  0
  -11.4949   -3.3169  -21.5219 C   0  0  0  0  0  0  0  0  0  0  0  0
  -11.0279   -2.2461  -22.2872 C   0  0  0  0  0  0  0  0  0  0  0  0
  -10.8208   -4.0484  -21.0951 H   0  0  0  0  0  0  0  0  0  0  0  0
  -14.8459   -2.7589  -21.5509 H   0  0  0  0  0  0  0  0  0  0  0  0
  -14.0507   -0.8234  -22.9669 H   0  0  0  0  0  0  0  0  0  0  0  0
   -8.4086   -0.9410  -24.0703 H   0  0  0  0  0  0  0  0  0  0  0  0
   -9.7430   -1.8820  -24.7146 H   0  0  0  0  0  0  0  0  0  0  0  0
   -6.6895   -2.4670  -23.0090 H   0  0  0  0  0  0  0  0  0  0  0  0
   -6.6619   -3.5580  -21.6117 H   0  0  0  0  0  0  0  0  0  0  0  0
   -8.9991   -3.8681  -21.6477 H   0  0  0  0  0  0  0  0  0  0  0  0
   -9.6343   -4.6721  -23.8821 H   0  0  0  0  0  0  0  0  0  0  0  0
   -7.9190   -5.0265  -23.6006 H   0  0  0  0  0  0  0  0  0  0  0  0
   -8.3774   -3.6721  -24.6434 H   0  0  0  0  0  0  0  0  0  0  0  0
  1  2  1  0
  2  3  1  0
  3  4  1  0
  4  5  1  0
  5  6  2  0
  6  7  1  0
  7  8  2  0
  8  9  1  0
  9 10  2  0
 10 11  1  0
 11 12  2  0
 12 13  1  0
 13 14  2  0
 13 15  1  0
 12 16  1  0
 11 17  1  0
 10 18  1  0
  8 19  1  0
  6 20  1  0
  4 21  1  0
 21 22  2  0
 21 23  1  0
 23 24  1  6
 24 25  1  0
 25 26  1  0
 26 27  1  0
 27 28  1  0
 28 29  2  0
 29 30  1  0
 30 31  1  0
 30 32  1  0
 28 33  1  0
 26 34  1  0
 26 35  1  0
 25 36  1  0
 36 37  2  0
 36 38  1  0
 38 39  2  0
 39 40  1  0
 40 41  2  0
 41 42  1  0
 41 43  1  0
 43 44  2  0
 43 45  1  0
 40 46  1  0
 39 47  1  0
 24 48  1  0
 24 49  1  0
  3 50  1  0
  3 51  1  0
  2 52  1  1
  1 53  1  0
  1 54  1  0
  1 55  1  0
 23  2  1  0
 31 27  2  0
 44 38  1  0
 14  5  1  0
 44 23  1  0
 14  9  1  0
M  END
>  <cnnaffinities>  (29) 
[6.2938, 6.56221]

>  <score>  (29) 
6.2938

>  <index>  (29) 
29

>  <Smiles>  (29) 
C([C@]1(C(N(c2c(nc(c3c(c(c(c(c23)[H])[H])[H])[H])[H])[H])C(=O)[C@]21C(N(C(c1c(nn(n1)[H])[H])([H])[H])C(=O)c1c(c(c(F)c(c21)[H])[H])[H])([H])[H])([H])[H])[H])([H])([H])[H]

>  <h>  (29) 
<NA>

>  <Training>  (29) 
True

>  <Success>  (29) 
True

>  <enamine_searched>  (29) 
False

>  <enamine_id>  (29) 
nan

$$$$

     RDKit          3D

 58 63  0  0  0  0  0  0  0  0999 V2000
   -8.2895   -4.1140  -23.5258 C   0  0  0  0  0  0  0  0  0  0  0  0
   -8.5276   -2.9682  -22.5581 C   0  0  1  0  0  0  0  0  0  0  0  0
   -7.3741   -2.7851  -21.5728 C   0  0  0  0  0  0  0  0  0  0  0  0
   -7.4224   -1.3860  -21.2292 N   0  0  0  0  0  0  0  0  0  0  0  0
   -6.5247   -0.9217  -20.2373 C   0  0  0  0  0  0  0  0  0  0  0  0
   -6.7577   -1.2623  -18.9295 C   0  0  0  0  0  0  0  0  0  0  0  0
   -5.9218   -0.9964  -17.8977 N   0  0  0  0  0  0  0  0  0  0  0  0
   -4.8007   -0.3793  -18.1744 C   0  0  0  0  0  0  0  0  0  0  0  0
   -4.4423    0.0441  -19.4851 C   0  0  0  0  0  0  0  0  0  0  0  0
   -3.2687    0.7995  -19.7193 C   0  0  0  0  0  0  0  0  0  0  0  0
   -3.0079    1.2948  -20.9680 C   0  0  0  0  0  0  0  0  0  0  0  0
   -3.8483    0.9697  -22.0574 C   0  0  0  0  0  0  0  0  0  0  0  0
   -4.9678    0.2021  -21.8641 C   0  0  0  0  0  0  0  0  0  0  0  0
   -5.3099   -0.2440  -20.5605 C   0  0  0  0  0  0  0  0  0  0  0  0
   -5.5947   -0.0624  -22.7094 H   0  0  0  0  0  0  0  0  0  0  0  0
   -3.6288    1.3661  -23.0418 H   0  0  0  0  0  0  0  0  0  0  0  0
   -2.1588    1.9541  -21.1271 H   0  0  0  0  0  0  0  0  0  0  0  0
   -2.6368    1.0217  -18.8641 H   0  0  0  0  0  0  0  0  0  0  0  0
   -4.1071   -0.1772  -17.3554 H   0  0  0  0  0  0  0  0  0  0  0  0
   -7.6821   -1.7831  -18.6845 H   0  0  0  0  0  0  0  0  0  0  0  0
   -8.1518   -0.6185  -22.1120 C   0  0  0  0  0  0  0  0  0  0  0  0
   -8.2637    0.5873  -22.0516 O   0  0  0  0  0  0  0  0  0  0  0  0
   -8.7458   -1.5477  -23.1933 C   0  0  1  0  0  0  0  0  0  0  0  0
   -7.9469   -1.2691  -24.4902 C   0  0  0  0  0  0  0  0  0  0  0  0
   -8.5771   -1.8043  -25.6900 N   0  0  0  0  0  0  0  0  0  0  0  0
   -7.7341   -2.1528  -26.8213 C   0  0  0  0  0  0  0  0  0  0  0  0
   -7.3180   -3.5981  -26.7810 C   0  0  0  0  0  0  0  0  0  0  0  0
   -8.1707   -4.6023  -27.1366 C   0  0  0  0  0  0  0  0  0  0  0  0
   -7.7525   -5.9838  -27.0990 C   0  0  0  0  0  0  0  0  0  0  0  0
   -8.4109   -6.9676  -27.3706 O   0  0  0  0  0  0  0  0  0  0  0  0
   -6.4105   -6.1132  -26.6970 N   0  0  0  0  0  0  0  0  0  0  0  0
   -5.6319   -5.0504  -26.3495 C   0  0  0  0  0  0  0  0  0  0  0  0
   -6.0301   -3.8251  -26.3481 N   0  0  0  0  0  0  0  0  0  0  0  0
   -4.6037   -5.2788  -26.0691 H   0  0  0  0  0  0  0  0  0  0  0  0
   -6.0533   -7.0570  -26.6546 H   0  0  0  0  0  0  0  0  0  0  0  0
   -9.1789   -4.4025  -27.4647 H   0  0  0  0  0  0  0  0  0  0  0  0
   -8.3108   -1.9327  -27.7245 H   0  0  0  0  0  0  0  0  0  0  0  0
   -6.8365   -1.5322  -26.7989 H   0  0  0  0  0  0  0  0  0  0  0  0
   -9.9262   -1.8009  -25.8949 C   0  0  0  0  0  0  0  0  0  0  0  0
  -10.4309   -2.1288  -26.9653 O   0  0  0  0  0  0  0  0  0  0  0  0
  -10.7596   -1.3935  -24.7348 C   0  0  0  0  0  0  0  0  0  0  0  0
  -12.1200   -1.1968  -24.9566 C   0  0  0  0  0  0  0  0  0  0  0  0
  -12.9703   -0.8991  -23.9148 C   0  0  0  0  0  0  0  0  0  0  0  0
  -12.4129   -0.8016  -22.6470 C   0  0  0  0  0  0  0  0  0  0  0  0
  -13.2478   -0.5378  -21.6362 F   0  0  0  0  0  0  0  0  0  0  0  0
  -11.0654   -0.9821  -22.3949 C   0  0  0  0  0  0  0  0  0  0  0  0
  -10.2080   -1.2670  -23.4591 C   0  0  0  0  0  0  0  0  0  0  0  0
  -10.6686   -0.9152  -21.3891 H   0  0  0  0  0  0  0  0  0  0  0  0
  -14.0385   -0.7547  -24.0504 H   0  0  0  0  0  0  0  0  0  0  0  0
  -12.4828   -1.2984  -25.9705 H   0  0  0  0  0  0  0  0  0  0  0  0
   -7.8223   -0.1811  -24.5864 H   0  0  0  0  0  0  0  0  0  0  0  0
   -6.9404   -1.6977  -24.4034 H   0  0  0  0  0  0  0  0  0  0  0  0
   -7.4968   -3.3562  -20.6596 H   0  0  0  0  0  0  0  0  0  0  0  0
   -6.3976   -3.0590  -22.0058 H   0  0  0  0  0  0  0  0  0  0  0  0
   -9.4373   -3.1793  -21.9731 H   0  0  0  0  0  0  0  0  0  0  0  0
   -8.2412   -5.0610  -22.9797 H   0  0  0  0  0  0  0  0  0  0  0  0
   -9.0940   -4.1665  -24.2660 H   0  0  0  0  0  0  0  0  0  0  0  0
   -7.3426   -3.9772  -24.0580 H   0  0  0  0  0  0  0  0  0  0  0  0
  1  2  1  0
  2  3  1  0
  3  4  1  0
  4  5  1  0
  5  6  2  0
  6  7  1  0
  7  8  2  0
  8  9  1  0
  9 10  2  0
 10 11  1  0
 11 12  2  0
 12 13  1  0
 13 14  2  0
 13 15  1  0
 12 16  1  0
 11 17  1  0
 10 18  1  0
  8 19  1  0
  6 20  1  0
  4 21  1  0
 21 22  2  0
 21 23  1  0
 23 24  1  6
 24 25  1  0
 25 26  1  0
 26 27  1  0
 27 28  2  0
 28 29  1  0
 29 30  2  0
 29 31  1  0
 31 32  1  0
 32 33  2  0
 32 34  1  0
 31 35  1  0
 28 36  1  0
 26 37  1  0
 26 38  1  0
 25 39  1  0
 39 40  2  0
 39 41  1  0
 41 42  2  0
 42 43  1  0
 43 44  2  0
 44 45  1  0
 44 46  1  0
 46 47  2  0
 46 48  1  0
 43 49  1  0
 42 50  1  0
 24 51  1  0
 24 52  1  0
  3 53  1  0
  3 54  1  0
  2 55  1  1
  1 56  1  0
  1 57  1  0
  1 58  1  0
 23  2  1  0
 33 27  1  0
 47 41  1  0
 14  5  1  0
 47 23  1  0
 14  9  1  0
M  END
>  <cnnaffinities>  (30) 
[6.4462, 6.51609, 6.62191]

>  <score>  (30) 
6.4462

>  <index>  (30) 
30

>  <Smiles>  (30) 
C([C@]1(C(N(c2c(nc(c3c(c(c(c(c23)[H])[H])[H])[H])[H])[H])C(=O)[C@]21C(N(C(c1c(c(=O)n(c(n1)[H])[H])[H])([H])[H])C(=O)c1c(c(c(F)c(c21)[H])[H])[H])([H])[H])([H])[H])[H])([H])([H])[H]

>  <h>  (30) 
<NA>

>  <Training>  (30) 
True

>  <Success>  (30) 
True

>  <enamine_searched>  (30) 
False

>  <enamine_id>  (30) 
nan

$$$$

     RDKit          3D

 66 71  0  0  0  0  0  0  0  0999 V2000
   -7.2814    3.3804  -21.9079 C   0  0  0  0  0  0  0  0  0  0  0  0
   -8.1762    2.9272  -22.9566 N   0  0  0  0  0  0  0  0  0  0  0  0
   -7.6390    2.2222  -23.9878 C   0  0  0  0  0  0  0  0  0  0  0  0
   -6.4365    2.0402  -24.0894 O   0  0  0  0  0  0  0  0  0  0  0  0
   -8.6249    1.6404  -25.0028 C   0  0  0  0  0  0  0  0  0  0  0  0
   -9.3232    0.5064  -24.4238 N   0  0  0  0  0  0  0  0  0  0  0  0
   -8.5818   -0.7359  -24.2396 C   0  0  0  0  0  0  0  0  0  0  0  0
   -9.0161   -1.4880  -22.9539 C   0  0  2  0  0  0  0  0  0  0  0  0
   -8.4781   -0.7462  -21.6998 C   0  0  0  0  0  0  0  0  0  0  0  0
   -8.9000    0.2812  -21.2089 O   0  0  0  0  0  0  0  0  0  0  0  0
   -7.3993   -1.4498  -21.2221 N   0  0  0  0  0  0  0  0  0  0  0  0
   -6.5350   -0.9709  -20.2113 C   0  0  0  0  0  0  0  0  0  0  0  0
   -6.7666   -1.2938  -18.9018 C   0  0  0  0  0  0  0  0  0  0  0  0
   -5.8791   -1.0755  -17.9009 N   0  0  0  0  0  0  0  0  0  0  0  0
   -4.7505   -0.4864  -18.2024 C   0  0  0  0  0  0  0  0  0  0  0  0
   -4.4185   -0.0342  -19.5096 C   0  0  0  0  0  0  0  0  0  0  0  0
   -3.2370    0.7071  -19.7681 C   0  0  0  0  0  0  0  0  0  0  0  0
   -3.0169    1.2516  -21.0026 C   0  0  0  0  0  0  0  0  0  0  0  0
   -3.9421    1.0309  -22.0538 C   0  0  0  0  0  0  0  0  0  0  0  0
   -5.0513    0.2467  -21.8460 C   0  0  0  0  0  0  0  0  0  0  0  0
   -5.3481   -0.2565  -20.5499 C   0  0  0  0  0  0  0  0  0  0  0  0
   -5.7245    0.0307  -22.6693 H   0  0  0  0  0  0  0  0  0  0  0  0
   -3.7769    1.4754  -23.0305 H   0  0  0  0  0  0  0  0  0  0  0  0
   -2.1543    1.8853  -21.1752 H   0  0  0  0  0  0  0  0  0  0  0  0
   -2.5736    0.9027  -18.9308 H   0  0  0  0  0  0  0  0  0  0  0  0
   -4.0314   -0.3240  -17.3962 H   0  0  0  0  0  0  0  0  0  0  0  0
   -7.6960   -1.7914  -18.6364 H   0  0  0  0  0  0  0  0  0  0  0  0
   -7.0605   -2.6302  -21.9785 C   0  0  0  0  0  0  0  0  0  0  0  0
   -8.3074   -2.8745  -22.8290 C   0  0  2  0  0  0  0  0  0  0  0  0
   -7.9389   -3.6224  -24.1052 C   0  0  0  0  0  0  0  0  0  0  0  0
   -9.1060   -3.9844  -24.8739 N   0  0  0  0  0  0  0  0  0  0  0  0
   -8.9991   -4.5991  -26.0799 C   0  0  0  0  0  0  0  0  0  0  0  0
  -10.1427   -4.9229  -26.8403 C   0  0  0  0  0  0  0  0  0  0  0  0
   -9.9222   -5.5349  -28.0495 C   0  0  0  0  0  0  0  0  0  0  0  0
   -8.6976   -5.8274  -28.5174 N   0  0  0  0  0  0  0  0  0  0  0  0
   -7.7010   -5.4882  -27.7143 C   0  0  0  0  0  0  0  0  0  0  0  0
   -7.7667   -4.8896  -26.5231 N   0  0  0  0  0  0  0  0  0  0  0  0
   -6.6999   -5.7262  -28.0760 H   0  0  0  0  0  0  0  0  0  0  0  0
  -10.7633   -5.8078  -28.6889 H   0  0  0  0  0  0  0  0  0  0  0  0
  -11.1482   -4.7107  -26.4865 H   0  0  0  0  0  0  0  0  0  0  0  0
  -10.0181   -3.7075  -24.5426 H   0  0  0  0  0  0  0  0  0  0  0  0
   -7.3856   -4.5348  -23.8491 H   0  0  0  0  0  0  0  0  0  0  0  0
   -7.2682   -3.0207  -24.7351 H   0  0  0  0  0  0  0  0  0  0  0  0
   -8.9709   -3.5285  -22.2565 H   0  0  0  0  0  0  0  0  0  0  0  0
   -6.8407   -3.4697  -21.3098 H   0  0  0  0  0  0  0  0  0  0  0  0
   -6.1680   -2.4778  -22.6060 H   0  0  0  0  0  0  0  0  0  0  0  0
  -10.5339   -1.5311  -22.9057 C   0  0  0  0  0  0  0  0  0  0  0  0
  -11.1910   -2.4132  -22.0369 C   0  0  0  0  0  0  0  0  0  0  0  0
  -12.5723   -2.4160  -21.9500 C   0  0  0  0  0  0  0  0  0  0  0  0
  -13.3489   -3.5104  -20.8393 Cl  0  0  0  0  0  0  0  0  0  0  0  0
  -13.3510   -1.5417  -22.7074 C   0  0  0  0  0  0  0  0  0  0  0  0
  -12.7089   -0.6309  -23.5232 C   0  0  0  0  0  0  0  0  0  0  0  0
  -11.3161   -0.5959  -23.5999 C   0  0  0  0  0  0  0  0  0  0  0  0
  -10.6922    0.5279  -24.3739 C   0  0  0  0  0  0  0  0  0  0  0  0
  -11.3626    1.4103  -24.8890 O   0  0  0  0  0  0  0  0  0  0  0  0
  -13.2711    0.0981  -24.0960 H   0  0  0  0  0  0  0  0  0  0  0  0
  -14.4327   -1.5556  -22.6213 H   0  0  0  0  0  0  0  0  0  0  0  0
  -10.6399   -3.0776  -21.3819 H   0  0  0  0  0  0  0  0  0  0  0  0
   -8.7324   -1.3875  -25.1128 H   0  0  0  0  0  0  0  0  0  0  0  0
   -7.5137   -0.5027  -24.1846 H   0  0  0  0  0  0  0  0  0  0  0  0
   -8.0681    1.3338  -25.8958 H   0  0  0  0  0  0  0  0  0  0  0  0
   -9.3787    2.3711  -25.3101 H   0  0  0  0  0  0  0  0  0  0  0  0
   -9.1336    2.7438  -22.6998 H   0  0  0  0  0  0  0  0  0  0  0  0
   -7.8637    3.8527  -21.1174 H   0  0  0  0  0  0  0  0  0  0  0  0
   -6.5874    4.1250  -22.3017 H   0  0  0  0  0  0  0  0  0  0  0  0
   -6.7001    2.5380  -21.5112 H   0  0  0  0  0  0  0  0  0  0  0  0
  1  2  1  0
  2  3  1  0
  3  4  2  0
  3  5  1  0
  5  6  1  0
  6  7  1  0
  8  7  1  6
  8  9  1  0
  9 10  2  0
  9 11  1  0
 11 12  1  0
 12 13  2  0
 13 14  1  0
 14 15  2  0
 15 16  1  0
 16 17  2  0
 17 18  1  0
 18 19  2  0
 19 20  1  0
 20 21  2  0
 20 22  1  0
 19 23  1  0
 18 24  1  0
 17 25  1  0
 15 26  1  0
 13 27  1  0
 11 28  1  0
 28 29  1  0
 29 30  1  0
 30 31  1  0
 31 32  1  0
 32 33  2  0
 33 34  1  0
 34 35  2  0
 35 36  1  0
 36 37  2  0
 36 38  1  0
 34 39  1  0
 33 40  1  0
 31 41  1  0
 30 42  1  0
 30 43  1  0
 29 44  1  1
 28 45  1  0
 28 46  1  0
  8 47  1  0
 47 48  2  0
 48 49  1  0
 49 50  1  0
 49 51  2  0
 51 52  1  0
 52 53  2  0
 53 54  1  0
 54 55  2  0
 52 56  1  0
 51 57  1  0
 48 58  1  0
  7 59  1  0
  7 60  1  0
  5 61  1  0
  5 62  1  0
  2 63  1  0
  1 64  1  0
  1 65  1  0
  1 66  1  0
 54  6  1  0
 29  8  1  0
 37 32  1  0
 53 47  1  0
 21 12  1  0
 21 16  1  0
M  END
>  <cnnaffinities>  (31) 
[6.72643, 6.73141, 7.20002]

>  <score>  (31) 
6.72643

>  <index>  (31) 
31

>  <Smiles>  (31) 
C(N(C(=O)C(N1C([C@@]2(C(=O)N(c3c(nc(c4c(c(c(c(c34)[H])[H])[H])[H])[H])[H])C([C@@]2(C(N(c2c(c(nc(n2)[H])[H])[H])[H])([H])[H])[H])([H])[H])c2c(c(Cl)c(c(c2C1=O)[H])[H])[H])([H])[H])([H])[H])[H])([H])([H])[H]

>  <h>  (31) 
<NA>

>  <Training>  (31) 
True

>  <Success>  (31) 
True

>  <enamine_searched>  (31) 
False

>  <enamine_id>  (31) 
nan

$$$$

     RDKit          3D

 57 62  0  0  0  0  0  0  0  0999 V2000
   -8.2192   -4.1072  -23.8311 C   0  0  0  0  0  0  0  0  0  0  0  0
   -8.4252   -3.2536  -22.5788 C   0  0  1  0  0  0  0  0  0  0  0  0
   -7.1050   -2.5925  -22.1497 C   0  0  0  0  0  0  0  0  0  0  0  0
   -7.5133   -1.4859  -21.3167 N   0  0  0  0  0  0  0  0  0  0  0  0
   -6.6265   -1.0487  -20.2873 C   0  0  0  0  0  0  0  0  0  0  0  0
   -6.8067   -1.4733  -18.9924 C   0  0  0  0  0  0  0  0  0  0  0  0
   -5.8876   -1.3559  -18.0018 N   0  0  0  0  0  0  0  0  0  0  0  0
   -4.7560   -0.7609  -18.2827 C   0  0  0  0  0  0  0  0  0  0  0  0
   -4.4486   -0.2176  -19.5613 C   0  0  0  0  0  0  0  0  0  0  0  0
   -3.2239    0.4618  -19.8122 C   0  0  0  0  0  0  0  0  0  0  0  0
   -2.9355    0.9356  -21.0612 C   0  0  0  0  0  0  0  0  0  0  0  0
   -3.8720    0.7805  -22.1071 C   0  0  0  0  0  0  0  0  0  0  0  0
   -5.0809    0.1653  -21.8816 C   0  0  0  0  0  0  0  0  0  0  0  0
   -5.3982   -0.3705  -20.6031 C   0  0  0  0  0  0  0  0  0  0  0  0
   -5.8010    0.0993  -22.6935 H   0  0  0  0  0  0  0  0  0  0  0  0
   -3.6404    1.1745  -23.0926 H   0  0  0  0  0  0  0  0  0  0  0  0
   -1.9823    1.4181  -21.2655 H   0  0  0  0  0  0  0  0  0  0  0  0
   -2.5366    0.6239  -18.9866 H   0  0  0  0  0  0  0  0  0  0  0  0
   -4.0115   -0.6845  -17.4878 H   0  0  0  0  0  0  0  0  0  0  0  0
   -7.7286   -1.9746  -18.7129 H   0  0  0  0  0  0  0  0  0  0  0  0
   -8.8264   -1.1071  -21.5426 C   0  0  0  0  0  0  0  0  0  0  0  0
   -9.3967   -0.2008  -20.9811 O   0  0  0  0  0  0  0  0  0  0  0  0
   -9.4275   -2.0490  -22.6625 C   0  0  1  0  0  0  0  0  0  0  0  0
   -9.3021   -1.3986  -24.0667 C   0  0  0  0  0  0  0  0  0  0  0  0
  -10.3148   -0.4033  -24.3747 N   0  0  0  0  0  0  0  0  0  0  0  0
   -9.8706    0.7938  -25.0800 C   0  0  0  0  0  0  0  0  0  0  0  0
   -9.0680    1.6127  -24.1181 C   0  0  0  0  0  0  0  0  0  0  0  0
   -7.7581    1.6993  -24.0594 N   0  0  0  0  0  0  0  0  0  0  0  0
   -7.4822    2.3220  -22.8936 N   0  0  0  0  0  0  0  0  0  0  0  0
   -8.5623    2.6018  -22.2573 N   0  0  0  0  0  0  0  0  0  0  0  0
   -9.5814    2.1626  -23.0061 N   0  0  0  0  0  0  0  0  0  0  0  0
  -10.9426    2.3478  -22.5395 C   0  0  0  0  0  0  0  0  0  0  0  0
  -11.1461    1.6569  -21.7218 H   0  0  0  0  0  0  0  0  0  0  0  0
  -11.6425    2.1807  -23.3583 H   0  0  0  0  0  0  0  0  0  0  0  0
  -11.0504    3.3704  -22.1791 H   0  0  0  0  0  0  0  0  0  0  0  0
  -10.7551    1.3032  -25.4672 H   0  0  0  0  0  0  0  0  0  0  0  0
   -9.2433    0.5144  -25.9301 H   0  0  0  0  0  0  0  0  0  0  0  0
  -11.6322   -0.5509  -24.0542 C   0  0  0  0  0  0  0  0  0  0  0  0
  -12.5195    0.1332  -24.5492 O   0  0  0  0  0  0  0  0  0  0  0  0
  -11.9209   -1.5770  -23.0067 C   0  0  0  0  0  0  0  0  0  0  0  0
  -13.2538   -1.6953  -22.6047 C   0  0  0  0  0  0  0  0  0  0  0  0
  -13.6169   -2.6267  -21.6570 C   0  0  0  0  0  0  0  0  0  0  0  0
  -12.6234   -3.4503  -21.1558 C   0  0  0  0  0  0  0  0  0  0  0  0
  -12.9696   -4.3142  -20.1886 F   0  0  0  0  0  0  0  0  0  0  0  0
  -11.3000   -3.3692  -21.5498 C   0  0  0  0  0  0  0  0  0  0  0  0
  -10.9013   -2.3574  -22.4301 C   0  0  0  0  0  0  0  0  0  0  0  0
  -10.5850   -4.0203  -21.0592 H   0  0  0  0  0  0  0  0  0  0  0  0
  -14.6292   -2.7424  -21.2834 H   0  0  0  0  0  0  0  0  0  0  0  0
  -13.9825   -1.0297  -23.0534 H   0  0  0  0  0  0  0  0  0  0  0  0
   -8.3242   -0.9150  -24.1431 H   0  0  0  0  0  0  0  0  0  0  0  0
   -9.3589   -2.1999  -24.8114 H   0  0  0  0  0  0  0  0  0  0  0  0
   -6.5576   -2.2398  -23.0392 H   0  0  0  0  0  0  0  0  0  0  0  0
   -6.4359   -3.2535  -21.5927 H   0  0  0  0  0  0  0  0  0  0  0  0
   -8.7422   -3.9102  -21.7612 H   0  0  0  0  0  0  0  0  0  0  0  0
   -7.5360   -4.9395  -23.6285 H   0  0  0  0  0  0  0  0  0  0  0  0
   -9.1530   -4.5252  -24.2199 H   0  0  0  0  0  0  0  0  0  0  0  0
   -7.7607   -3.5112  -24.6293 H   0  0  0  0  0  0  0  0  0  0  0  0
  1  2  1  0
  2  3  1  0
  3  4  1  0
  4  5  1  0
  5  6  2  0
  6  7  1  0
  7  8  2  0
  8  9  1  0
  9 10  2  0
 10 11  1  0
 11 12  2  0
 12 13  1  0
 13 14  2  0
 13 15  1  0
 12 16  1  0
 11 17  1  0
 10 18  1  0
  8 19  1  0
  6 20  1  0
  4 21  1  0
 21 22  2  0
 21 23  1  0
 23 24  1  6
 24 25  1  0
 25 26  1  0
 26 27  1  0
 27 28  2  0
 28 29  1  0
 29 30  2  0
 30 31  1  0
 31 32  1  0
 32 33  1  0
 32 34  1  0
 32 35  1  0
 26 36  1  0
 26 37  1  0
 25 38  1  0
 38 39  2  0
 38 40  1  0
 40 41  2  0
 41 42  1  0
 42 43  2  0
 43 44  1  0
 43 45  1  0
 45 46  2  0
 45 47  1  0
 42 48  1  0
 41 49  1  0
 24 50  1  0
 24 51  1  0
  3 52  1  0
  3 53  1  0
  2 54  1  1
  1 55  1  0
  1 56  1  0
  1 57  1  0
 23  2  1  0
 31 27  1  0
 46 40  1  0
 14  5  1  0
 46 23  1  0
 14  9  1  0
M  END
>  <cnnaffinities>  (32) 
[6.70122, 6.44613]

>  <score>  (32) 
6.70122

>  <index>  (32) 
32

>  <Smiles>  (32) 
C([C@]1(C(N(c2c(nc(c3c(c(c(c(c23)[H])[H])[H])[H])[H])[H])C(=O)[C@]21C(N(C(c1nnnn1C([H])([H])[H])([H])[H])C(=O)c1c(c(c(F)c(c21)[H])[H])[H])([H])[H])([H])[H])[H])([H])([H])[H]

>  <h>  (32) 
<NA>

>  <Training>  (32) 
True

>  <Success>  (32) 
True

>  <enamine_searched>  (32) 
False

>  <enamine_id>  (32) 
nan

$$$$

     RDKit          3D

 66 70  0  0  0  0  0  0  0  0999 V2000
   -7.3980    3.2846  -21.9337 C   0  0  0  0  0  0  0  0  0  0  0  0
   -8.4071    2.7526  -22.8352 N   0  0  0  0  0  0  0  0  0  0  0  0
   -8.0040    2.0528  -23.9274 C   0  0  0  0  0  0  0  0  0  0  0  0
   -6.8186    1.8721  -24.1676 O   0  0  0  0  0  0  0  0  0  0  0  0
   -9.1027    1.4742  -24.8301 C   0  0  0  0  0  0  0  0  0  0  0  0
   -9.6687    0.2783  -24.2318 N   0  0  0  0  0  0  0  0  0  0  0  0
   -8.8272   -0.9026  -24.0996 C   0  0  0  0  0  0  0  0  0  0  0  0
   -9.1159   -1.6952  -22.7931 C   0  0  2  0  0  0  0  0  0  0  0  0
   -8.5579   -0.9132  -21.5683 C   0  0  0  0  0  0  0  0  0  0  0  0
   -9.0552    0.0427  -21.0111 O   0  0  0  0  0  0  0  0  0  0  0  0
   -7.3586   -1.4817  -21.2083 N   0  0  0  0  0  0  0  0  0  0  0  0
   -6.5254   -0.9666  -20.1864 C   0  0  0  0  0  0  0  0  0  0  0  0
   -6.7398   -1.3076  -18.8753 C   0  0  0  0  0  0  0  0  0  0  0  0
   -5.8453   -1.0869  -17.8809 N   0  0  0  0  0  0  0  0  0  0  0  0
   -4.7216   -0.4965  -18.1963 C   0  0  0  0  0  0  0  0  0  0  0  0
   -4.4095   -0.0215  -19.5002 C   0  0  0  0  0  0  0  0  0  0  0  0
   -3.2169    0.6981  -19.7697 C   0  0  0  0  0  0  0  0  0  0  0  0
   -2.9824    1.2166  -21.0138 C   0  0  0  0  0  0  0  0  0  0  0  0
   -3.9316    1.0274  -22.0467 C   0  0  0  0  0  0  0  0  0  0  0  0
   -5.0667    0.2856  -21.8254 C   0  0  0  0  0  0  0  0  0  0  0  0
   -5.3501   -0.2325  -20.5324 C   0  0  0  0  0  0  0  0  0  0  0  0
   -5.7640    0.0894  -22.6391 H   0  0  0  0  0  0  0  0  0  0  0  0
   -3.7676    1.4634  -23.0281 H   0  0  0  0  0  0  0  0  0  0  0  0
   -2.0959    1.8151  -21.2019 H   0  0  0  0  0  0  0  0  0  0  0  0
   -2.5401    0.8839  -18.9391 H   0  0  0  0  0  0  0  0  0  0  0  0
   -3.9923   -0.3515  -17.3985 H   0  0  0  0  0  0  0  0  0  0  0  0
   -7.6599   -1.8114  -18.5846 H   0  0  0  0  0  0  0  0  0  0  0  0
   -6.9644   -2.6307  -21.9973 C   0  0  0  0  0  0  0  0  0  0  0  0
   -8.2657   -3.0046  -22.7295 C   0  0  2  0  0  0  0  0  0  0  0  0
   -7.9793   -3.6849  -24.0612 C   0  0  0  0  0  0  0  0  0  0  0  0
   -7.2490   -4.8658  -23.8086 O   0  0  0  0  0  0  0  0  0  0  0  0
   -7.0562   -5.6800  -24.9560 C   0  0  0  0  0  0  0  0  0  0  0  0
   -5.6889   -6.3344  -24.8521 C   0  0  0  0  0  0  0  0  0  0  0  0
   -5.4998   -6.9514  -25.7364 H   0  0  0  0  0  0  0  0  0  0  0  0
   -4.8986   -5.5835  -24.7782 H   0  0  0  0  0  0  0  0  0  0  0  0
   -5.6416   -6.9745  -23.9668 H   0  0  0  0  0  0  0  0  0  0  0  0
   -8.1636   -6.7184  -25.0474 C   0  0  0  0  0  0  0  0  0  0  0  0
   -8.1252   -7.3795  -24.1771 H   0  0  0  0  0  0  0  0  0  0  0  0
   -9.1510   -6.2503  -25.0779 H   0  0  0  0  0  0  0  0  0  0  0  0
   -8.0439   -7.3183  -25.9534 H   0  0  0  0  0  0  0  0  0  0  0  0
   -7.0764   -5.0427  -25.8537 H   0  0  0  0  0  0  0  0  0  0  0  0
   -8.9200   -3.8990  -24.5945 H   0  0  0  0  0  0  0  0  0  0  0  0
   -7.3769   -3.0216  -24.7066 H   0  0  0  0  0  0  0  0  0  0  0  0
   -8.7929   -3.7264  -22.1020 H   0  0  0  0  0  0  0  0  0  0  0  0
   -6.1566   -2.3844  -22.7025 H   0  0  0  0  0  0  0  0  0  0  0  0
   -6.5887   -3.4436  -21.3663 H   0  0  0  0  0  0  0  0  0  0  0  0
  -10.6240   -1.8702  -22.6815 C   0  0  0  0  0  0  0  0  0  0  0  0
  -11.1841   -2.8356  -21.8329 C   0  0  0  0  0  0  0  0  0  0  0  0
  -12.5570   -2.9128  -21.6675 C   0  0  0  0  0  0  0  0  0  0  0  0
  -13.2237   -4.0072  -20.4894 Cl  0  0  0  0  0  0  0  0  0  0  0  0
  -13.4280   -2.0955  -22.3875 C   0  0  0  0  0  0  0  0  0  0  0  0
  -12.8896   -1.1407  -23.2222 C   0  0  0  0  0  0  0  0  0  0  0  0
  -11.5088   -0.9921  -23.3288 C   0  0  0  0  0  0  0  0  0  0  0  0
  -11.0246    0.1958  -24.0961 C   0  0  0  0  0  0  0  0  0  0  0  0
  -11.7933    1.0362  -24.5443 O   0  0  0  0  0  0  0  0  0  0  0  0
  -13.5214   -0.4636  -23.7882 H   0  0  0  0  0  0  0  0  0  0  0  0
  -14.4995   -2.1953  -22.2607 H   0  0  0  0  0  0  0  0  0  0  0  0
  -10.5646   -3.5235  -21.2669 H   0  0  0  0  0  0  0  0  0  0  0  0
   -8.9892   -1.5602  -24.9662 H   0  0  0  0  0  0  0  0  0  0  0  0
   -7.7845   -0.5720  -24.1082 H   0  0  0  0  0  0  0  0  0  0  0  0
   -8.6681    1.2556  -25.8141 H   0  0  0  0  0  0  0  0  0  0  0  0
   -9.9359    2.1656  -24.9905 H   0  0  0  0  0  0  0  0  0  0  0  0
   -9.3318    2.5918  -22.4664 H   0  0  0  0  0  0  0  0  0  0  0  0
   -6.6867    3.8969  -22.4923 H   0  0  0  0  0  0  0  0  0  0  0  0
   -7.8676    3.9231  -21.1846 H   0  0  0  0  0  0  0  0  0  0  0  0
   -6.8190    2.4804  -21.4591 H   0  0  0  0  0  0  0  0  0  0  0  0
  1  2  1  0
  2  3  1  0
  3  4  2  0
  3  5  1  0
  5  6  1  0
  6  7  1  0
  8  7  1  6
  8  9  1  0
  9 10  2  0
  9 11  1  0
 11 12  1  0
 12 13  2  0
 13 14  1  0
 14 15  2  0
 15 16  1  0
 16 17  2  0
 17 18  1  0
 18 19  2  0
 19 20  1  0
 20 21  2  0
 20 22  1  0
 19 23  1  0
 18 24  1  0
 17 25  1  0
 15 26  1  0
 13 27  1  0
 11 28  1  0
 28 29  1  0
 29 30  1  0
 30 31  1  0
 31 32  1  0
 32 33  1  0
 33 34  1  0
 33 35  1  0
 33 36  1  0
 32 37  1  0
 37 38  1  0
 37 39  1  0
 37 40  1  0
 32 41  1  0
 30 42  1  0
 30 43  1  0
 29 44  1  1
 28 45  1  0
 28 46  1  0
  8 47  1  0
 47 48  2  0
 48 49  1  0
 49 50  1  0
 49 51  2  0
 51 52  1  0
 52 53  2  0
 53 54  1  0
 54 55  2  0
 52 56  1  0
 51 57  1  0
 48 58  1  0
  7 59  1  0
  7 60  1  0
  5 61  1  0
  5 62  1  0
  2 63  1  0
  1 64  1  0
  1 65  1  0
  1 66  1  0
 54  6  1  0
 29  8  1  0
 53 47  1  0
 21 12  1  0
 21 16  1  0
M  END
>  <cnnaffinities>  (33) 
[6.65349, 6.67187, 6.35176, 6.73713, 7.01188, 7.06201, 6.5822, 6.64108]

>  <score>  (33) 
6.65349

>  <index>  (33) 
34

>  <Smiles>  (33) 
C(N(C(=O)C(N1C([C@@]2(C(=O)N(c3c(nc(c4c(c(c(c(c34)[H])[H])[H])[H])[H])[H])C([C@@]2(C(OC(C([H])([H])[H])(C([H])([H])[H])[H])([H])[H])[H])([H])[H])c2c(c(Cl)c(c(c2C1=O)[H])[H])[H])([H])[H])([H])[H])[H])([H])([H])[H]

>  <h>  (33) 
<NA>

>  <Training>  (33) 
True

>  <Success>  (33) 
True

>  <enamine_searched>  (33) 
False

>  <enamine_id>  (33) 
nan

$$$$

     RDKit          3D

 40 42  0  0  0  0  0  0  0  0999 V2000
   -9.2254   -1.8680  -22.4307 O   0  0  0  0  0  0  0  0  0  0  0  0
   -8.2563   -1.1173  -22.3199 C   0  0  0  0  0  0  0  0  0  0  0  0
   -6.8741   -1.7207  -22.1221 C   0  0  0  0  0  0  0  0  0  0  0  0
   -6.1264   -1.2444  -20.8900 C   0  0  0  0  0  0  0  0  0  0  0  0
   -6.6202   -1.5431  -19.6420 C   0  0  0  0  0  0  0  0  0  0  0  0
   -6.0150   -1.2468  -18.4689 N   0  0  0  0  0  0  0  0  0  0  0  0
   -4.8847   -0.5883  -18.5280 C   0  0  0  0  0  0  0  0  0  0  0  0
   -4.2765   -0.1621  -19.7401 C   0  0  0  0  0  0  0  0  0  0  0  0
   -3.0986    0.6294  -19.7478 C   0  0  0  0  0  0  0  0  0  0  0  0
   -2.5604    1.0618  -20.9294 C   0  0  0  0  0  0  0  0  0  0  0  0
   -3.1734    0.7168  -22.1535 C   0  0  0  0  0  0  0  0  0  0  0  0
   -4.3143   -0.0538  -22.1686 C   0  0  0  0  0  0  0  0  0  0  0  0
   -4.9046   -0.5092  -20.9611 C   0  0  0  0  0  0  0  0  0  0  0  0
   -4.7867   -0.2744  -23.1214 H   0  0  0  0  0  0  0  0  0  0  0  0
   -2.7540    1.0821  -23.0868 H   0  0  0  0  0  0  0  0  0  0  0  0
   -1.6657    1.6794  -20.9340 H   0  0  0  0  0  0  0  0  0  0  0  0
   -2.6667    0.9155  -18.7907 H   0  0  0  0  0  0  0  0  0  0  0  0
   -4.3990   -0.3596  -17.5797 H   0  0  0  0  0  0  0  0  0  0  0  0
   -7.5710   -2.0675  -19.5576 H   0  0  0  0  0  0  0  0  0  0  0  0
   -7.0662   -2.7960  -22.0352 H   0  0  0  0  0  0  0  0  0  0  0  0
   -6.2736   -1.5889  -23.0240 H   0  0  0  0  0  0  0  0  0  0  0  0
   -8.3229    0.2477  -22.3147 N   0  0  0  0  0  0  0  0  0  0  0  0
   -7.3209    1.0854  -23.0596 C   0  0  0  0  0  0  0  0  0  0  0  0
   -7.8463    2.3790  -23.6116 C   0  0  0  0  0  0  0  0  0  0  0  0
   -9.0978    2.8156  -23.6183 C   0  0  0  0  0  0  0  0  0  0  0  0
   -8.4410    5.4447  -22.9967 C   0  0  0  0  0  0  0  0  0  0  0  0
   -7.9367    5.0517  -21.8476 F   0  0  0  0  0  0  0  0  0  0  0  0
   -9.3094    6.4163  -22.8322 F   0  0  0  0  0  0  0  0  0  0  0  0
   -7.4895    5.7885  -23.8381 F   0  0  0  0  0  0  0  0  0  0  0  0
   -9.5066    1.0445  -21.9053 C   0  0  0  0  0  0  0  0  0  0  0  0
   -9.5265    0.8931  -21.7318 C   0  0  0  0  0  0  0  0  0  0  0  0
  -10.2479    0.5333  -22.7342 H   0  0  0  0  0  0  0  0  0  0  0  0
   -9.8451    0.0302  -20.4718 H   0  0  0  0  0  0  0  0  0  0  0  0
  -10.4400    1.8043  -21.6846 H   0  0  0  0  0  0  0  0  0  0  0  0
   -8.8075    1.9020  -21.3699 H   0  0  0  0  0  0  0  0  0  0  0  0
   -9.2842    3.8851  -23.7241 H   0  0  0  0  0  0  0  0  0  0  0  0
   -7.0619    3.0107  -24.0091 H   0  0  0  0  0  0  0  0  0  0  0  0
   -9.9100    2.1275  -23.5092 H   0  0  0  0  0  0  0  0  0  0  0  0
   -6.9129    0.4997  -23.8787 H   0  0  0  0  0  0  0  0  0  0  0  0
   -6.4935    1.3214  -22.3825 H   0  0  0  0  0  0  0  0  0  0  0  0
  1  2  2  0
  2  3  1  0
  3  4  1  0
  4  5  2  0
  5  6  1  0
  6  7  2  0
  7  8  1  0
  8  9  2  0
  9 10  1  0
 10 11  2  0
 11 12  1  0
 12 13  2  0
 12 14  1  0
 11 15  1  0
 10 16  1  0
  9 17  1  0
  7 18  1  0
  5 19  1  0
  3 20  1  0
  3 21  1  0
  2 22  1  0
 22 23  1  0
 23 24  1  0
 24 25  1  0
 25 26  1  0
 26 27  1  0
 26 28  1  0
 26 29  1  0
 25 30  1  0
 30 31  1  0
 31 32  1  0
 31 33  1  0
 30 34  1  0
 30 35  1  0
 25 36  1  0
 24 37  1  0
 24 38  1  0
 23 39  1  0
 23 40  1  0
 13  4  1  0
 31 22  1  0
 13  8  1  0
M  END
>  <cnnaffinities>  (34) 
[5.27382, 5.2409]

>  <score>  (34) 
5.27382

>  <index>  (34) 
35

>  <Smiles>  (34) 
O=C(C(c1c(nc(c2c(c(c(c(c12)[H])[H])[H])[H])[H])[H])([H])[H])N1C(C(C(C(F)(F)F)(C(C1([H])[H])([H])[H])[H])([H])[H])([H])[H]

>  <h>  (34) 
<NA>

>  <Training>  (34) 
True

>  <Success>  (34) 
True

>  <enamine_searched>  (34) 
False

>  <enamine_id>  (34) 
nan

$$$$

     RDKit          3D

 47 50  0  0  0  0  0  0  0  0999 V2000
   -8.7589    0.5980  -21.2774 O   0  0  0  0  0  0  0  0  0  0  0  0
   -8.4527   -0.4103  -21.8895 C   0  0  0  0  0  0  0  0  0  0  0  0
   -7.4552   -1.4379  -21.3234 C   0  0  0  0  0  0  0  0  0  0  0  0
   -6.5131   -0.9847  -20.2438 C   0  0  0  0  0  0  0  0  0  0  0  0
   -6.7612   -1.2590  -18.9283 C   0  0  0  0  0  0  0  0  0  0  0  0
   -5.9320   -0.9921  -17.8880 N   0  0  0  0  0  0  0  0  0  0  0  0
   -4.8128   -0.3728  -18.1687 C   0  0  0  0  0  0  0  0  0  0  0  0
   -4.4445    0.0378  -19.4807 C   0  0  0  0  0  0  0  0  0  0  0  0
   -3.2861    0.8209  -19.7202 C   0  0  0  0  0  0  0  0  0  0  0  0
   -3.0556    1.3484  -20.9609 C   0  0  0  0  0  0  0  0  0  0  0  0
   -3.9111    1.0156  -22.0378 C   0  0  0  0  0  0  0  0  0  0  0  0
   -4.9926    0.1927  -21.8589 C   0  0  0  0  0  0  0  0  0  0  0  0
   -5.3169   -0.2725  -20.5533 C   0  0  0  0  0  0  0  0  0  0  0  0
   -5.6717   -0.0040  -22.6855 H   0  0  0  0  0  0  0  0  0  0  0  0
   -3.7283    1.4452  -23.0189 H   0  0  0  0  0  0  0  0  0  0  0  0
   -2.2640    2.0710  -21.1196 H   0  0  0  0  0  0  0  0  0  0  0  0
   -2.6247    1.0407  -18.8859 H   0  0  0  0  0  0  0  0  0  0  0  0
   -4.1537   -0.1457  -17.3309 H   0  0  0  0  0  0  0  0  0  0  0  0
   -7.7143   -1.7044  -18.6575 H   0  0  0  0  0  0  0  0  0  0  0  0
   -6.8571   -1.8604  -22.1320 H   0  0  0  0  0  0  0  0  0  0  0  0
   -8.0862   -2.2442  -20.9247 H   0  0  0  0  0  0  0  0  0  0  0  0
   -9.0721   -0.7422  -23.0833 N   0  0  0  0  0  0  0  0  0  0  0  0
  -10.0712    0.2371  -23.5228 C   0  0  0  0  0  0  0  0  0  0  0  0
  -11.0539   -0.3032  -24.5484 C   0  0  0  0  0  0  0  0  0  0  0  0
  -10.3189   -0.9954  -25.6908 C   0  0  0  0  0  0  0  0  0  0  0  0
   -9.5196   -2.1575  -25.1037 C   0  0  0  0  0  0  0  0  0  0  0  0
   -8.5124   -1.7273  -24.0211 C   0  0  1  0  0  0  0  0  0  0  0  0
   -7.1790   -1.2947  -24.6415 C   0  0  0  0  0  0  0  0  0  0  0  0
   -6.1558   -2.2388  -24.7751 C   0  0  0  0  0  0  0  0  0  0  0  0
   -4.9353   -1.9023  -25.3532 C   0  0  0  0  0  0  0  0  0  0  0  0
   -4.7260   -0.6079  -25.8212 C   0  0  0  0  0  0  0  0  0  0  0  0
   -5.7472    0.3347  -25.7163 C   0  0  0  0  0  0  0  0  0  0  0  0
   -6.9645   -0.0066  -25.1313 C   0  0  0  0  0  0  0  0  0  0  0  0
   -7.7444    0.7495  -25.0667 H   0  0  0  0  0  0  0  0  0  0  0  0
   -5.5992    1.3434  -26.0952 H   0  0  0  0  0  0  0  0  0  0  0  0
   -3.7735   -0.3362  -26.2676 H   0  0  0  0  0  0  0  0  0  0  0  0
   -4.1505   -2.6510  -25.4333 H   0  0  0  0  0  0  0  0  0  0  0  0
   -6.3114   -3.2563  -24.4176 H   0  0  0  0  0  0  0  0  0  0  0  0
   -8.2995   -2.6325  -23.4360 H   0  0  0  0  0  0  0  0  0  0  0  0
   -8.9711   -2.7077  -25.8794 H   0  0  0  0  0  0  0  0  0  0  0  0
  -10.2247   -2.8633  -24.6501 H   0  0  0  0  0  0  0  0  0  0  0  0
   -9.6524   -0.2929  -26.2107 H   0  0  0  0  0  0  0  0  0  0  0  0
  -11.0289   -1.3663  -26.4376 H   0  0  0  0  0  0  0  0  0  0  0  0
  -11.6860    0.5260  -24.8954 H   0  0  0  0  0  0  0  0  0  0  0  0
  -11.7232   -1.0271  -24.0668 H   0  0  0  0  0  0  0  0  0  0  0  0
  -10.5979    0.5603  -22.6234 H   0  0  0  0  0  0  0  0  0  0  0  0
   -9.5611    1.1261  -23.9215 H   0  0  0  0  0  0  0  0  0  0  0  0
  1  2  2  0
  2  3  1  0
  3  4  1  0
  4  5  2  0
  5  6  1  0
  6  7  2  0
  7  8  1  0
  8  9  2  0
  9 10  1  0
 10 11  2  0
 11 12  1  0
 12 13  2  0
 12 14  1  0
 11 15  1  0
 10 16  1  0
  9 17  1  0
  7 18  1  0
  5 19  1  0
  3 20  1  0
  3 21  1  0
  2 22  1  0
 22 23  1  0
 23 24  1  0
 24 25  1  0
 25 26  1  0
 26 27  1  0
 27 28  1  0
 28 29  2  0
 29 30  1  0
 30 31  2  0
 31 32  1  0
 32 33  2  0
 33 34  1  0
 32 35  1  0
 31 36  1  0
 30 37  1  0
 29 38  1  0
 27 39  1  1
 26 40  1  0
 26 41  1  0
 25 42  1  0
 25 43  1  0
 24 44  1  0
 24 45  1  0
 23 46  1  0
 23 47  1  0
 13  4  1  0
 27 22  1  0
 33 28  1  0
 13  8  1  0
M  END
>  <cnnaffinities>  (35) 
[5.49874, 5.49888, 5.78818, 5.78664, 5.5792, 5.57922]

>  <score>  (35) 
5.49874

>  <index>  (35) 
36

>  <Smiles>  (35) 
O=C(C(c1c(nc(c2c(c(c(c(c12)[H])[H])[H])[H])[H])[H])([H])[H])N1C(C(C(C([C@]1(c1c(c(c(c(c1[H])[H])[H])[H])[H])[H])([H])[H])([H])[H])([H])[H])([H])[H]

>  <h>  (35) 
<NA>

>  <Training>  (35) 
True

>  <Success>  (35) 
True

>  <enamine_searched>  (35) 
False

>  <enamine_id>  (35) 
nan

$$$$

     RDKit          3D

 56 60  0  0  0  0  0  0  0  0999 V2000
   -7.2748    3.4165  -21.9262 C   0  0  0  0  0  0  0  0  0  0  0  0
   -8.1387    2.9709  -23.0103 N   0  0  0  0  0  0  0  0  0  0  0  0
   -7.5728    2.2382  -24.0125 C   0  0  0  0  0  0  0  0  0  0  0  0
   -6.3678    2.0562  -24.0998 O   0  0  0  0  0  0  0  0  0  0  0  0
   -8.5417    1.6437  -25.0376 C   0  0  0  0  0  0  0  0  0  0  0  0
   -9.2637    0.5195  -24.4699 N   0  0  0  0  0  0  0  0  0  0  0  0
   -8.5518   -0.7324  -24.2651 C   0  0  0  0  0  0  0  0  0  0  0  0
   -8.9897   -1.4386  -22.9578 C   0  0  2  0  0  0  0  0  0  0  0  0
   -8.4437   -0.6738  -21.7244 C   0  0  0  0  0  0  0  0  0  0  0  0
   -8.8368    0.3873  -21.2824 O   0  0  0  0  0  0  0  0  0  0  0  0
   -7.4074   -1.4035  -21.1961 N   0  0  0  0  0  0  0  0  0  0  0  0
   -6.5280   -0.9354  -20.1924 C   0  0  0  0  0  0  0  0  0  0  0  0
   -6.7710   -1.2474  -18.8861 C   0  0  0  0  0  0  0  0  0  0  0  0
   -5.9099   -0.9962  -17.8692 N   0  0  0  0  0  0  0  0  0  0  0  0
   -4.7852   -0.3933  -18.1661 C   0  0  0  0  0  0  0  0  0  0  0  0
   -4.4370    0.0351  -19.4782 C   0  0  0  0  0  0  0  0  0  0  0  0
   -3.2716    0.7953  -19.7382 C   0  0  0  0  0  0  0  0  0  0  0  0
   -3.0512    1.3203  -20.9837 C   0  0  0  0  0  0  0  0  0  0  0  0
   -3.9335    1.0231  -22.0510 C   0  0  0  0  0  0  0  0  0  0  0  0
   -5.0364    0.2385  -21.8373 C   0  0  0  0  0  0  0  0  0  0  0  0
   -5.3296   -0.2461  -20.5354 C   0  0  0  0  0  0  0  0  0  0  0  0
   -5.6940   -0.0060  -22.6677 H   0  0  0  0  0  0  0  0  0  0  0  0
   -3.7653    1.4564  -23.0319 H   0  0  0  0  0  0  0  0  0  0  0  0
   -2.2034    1.9750  -21.1554 H   0  0  0  0  0  0  0  0  0  0  0  0
   -2.6179    1.0103  -18.8984 H   0  0  0  0  0  0  0  0  0  0  0  0
   -4.0839   -0.1904  -17.3555 H   0  0  0  0  0  0  0  0  0  0  0  0
   -7.7039   -1.7523  -18.6381 H   0  0  0  0  0  0  0  0  0  0  0  0
   -7.0776   -2.6048  -21.9183 C   0  0  0  0  0  0  0  0  0  0  0  0
   -8.3014   -2.8367  -22.8161 C   0  0  2  0  0  0  0  0  0  0  0  0
   -7.9153   -3.5730  -24.0950 C   0  0  0  0  0  0  0  0  0  0  0  0
   -7.1483   -3.0171  -24.6471 H   0  0  0  0  0  0  0  0  0  0  0  0
   -7.4950   -4.5515  -23.8394 H   0  0  0  0  0  0  0  0  0  0  0  0
   -8.7726   -3.7295  -24.7580 H   0  0  0  0  0  0  0  0  0  0  0  0
   -8.9924   -3.4803  -22.2664 H   0  0  0  0  0  0  0  0  0  0  0  0
   -6.1484   -2.4938  -22.5055 H   0  0  0  0  0  0  0  0  0  0  0  0
   -6.9229   -3.4226  -21.2071 H   0  0  0  0  0  0  0  0  0  0  0  0
  -10.5068   -1.4521  -22.9032 C   0  0  0  0  0  0  0  0  0  0  0  0
  -11.1756   -2.3112  -22.0286 C   0  0  0  0  0  0  0  0  0  0  0  0
  -12.5555   -2.3170  -21.9461 C   0  0  0  0  0  0  0  0  0  0  0  0
  -13.3160   -1.4425  -22.7237 C   0  0  0  0  0  0  0  0  0  0  0  0
  -12.6717   -0.5479  -23.5529 C   0  0  0  0  0  0  0  0  0  0  0  0
  -11.2786   -0.5300  -23.6200 C   0  0  0  0  0  0  0  0  0  0  0  0
  -10.6315    0.5637  -24.4177 C   0  0  0  0  0  0  0  0  0  0  0  0
  -11.2861    1.4484  -24.9479 O   0  0  0  0  0  0  0  0  0  0  0  0
  -13.2182    0.1740  -24.1474 H   0  0  0  0  0  0  0  0  0  0  0  0
  -14.3989   -1.4468  -22.6515 H   0  0  0  0  0  0  0  0  0  0  0  0
  -13.0398   -3.0034  -21.2620 H   0  0  0  0  0  0  0  0  0  0  0  0
  -10.6180   -2.9822  -21.3824 H   0  0  0  0  0  0  0  0  0  0  0  0
   -8.7468   -1.4112  -25.1068 H   0  0  0  0  0  0  0  0  0  0  0  0
   -7.4750   -0.5305  -24.2440 H   0  0  0  0  0  0  0  0  0  0  0  0
   -7.9608    1.3202  -25.9084 H   0  0  0  0  0  0  0  0  0  0  0  0
   -9.2821    2.3789  -25.3677 H   0  0  0  0  0  0  0  0  0  0  0  0
   -9.1148    2.8181  -22.7862 H   0  0  0  0  0  0  0  0  0  0  0  0
   -6.7108    2.5695  -21.5062 H   0  0  0  0  0  0  0  0  0  0  0  0
   -6.5639    4.1618  -22.2958 H   0  0  0  0  0  0  0  0  0  0  0  0
   -7.8780    3.8858  -21.1464 H   0  0  0  0  0  0  0  0  0  0  0  0
  1  2  1  0
  2  3  1  0
  3  4  2  0
  3  5  1  0
  5  6  1  0
  6  7  1  0
  8  7  1  6
  8  9  1  0
  9 10  2  0
  9 11  1  0
 11 12  1  0
 12 13  2  0
 13 14  1  0
 14 15  2  0
 15 16  1  0
 16 17  2  0
 17 18  1  0
 18 19  2  0
 19 20  1  0
 20 21  2  0
 20 22  1  0
 19 23  1  0
 18 24  1  0
 17 25  1  0
 15 26  1  0
 13 27  1  0
 11 28  1  0
 28 29  1  0
 29 30  1  0
 30 31  1  0
 30 32  1  0
 30 33  1  0
 29 34  1  1
 28 35  1  0
 28 36  1  0
  8 37  1  0
 37 38  2  0
 38 39  1  0
 39 40  2  0
 40 41  1  0
 41 42  2  0
 42 43  1  0
 43 44  2  0
 41 45  1  0
 40 46  1  0
 39 47  1  0
 38 48  1  0
  7 49  1  0
  7 50  1  0
  5 51  1  0
  5 52  1  0
  2 53  1  0
  1 54  1  0
  1 55  1  0
  1 56  1  0
 43  6  1  0
 29  8  1  0
 42 37  1  0
 21 12  1  0
 21 16  1  0
M  END
>  <cnnaffinities>  (36) 
[6.38951, 6.1899, 6.17627]

>  <score>  (36) 
6.38951

>  <index>  (36) 
37

>  <Smiles>  (36) 
C(N(C(=O)C(N1C([C@@]2(C(=O)N(c3c(nc(c4c(c(c(c(c34)[H])[H])[H])[H])[H])[H])C([C@@]2(C([H])([H])[H])[H])([H])[H])c2c(c(c(c(c2C1=O)[H])[H])[H])[H])([H])[H])([H])[H])[H])([H])([H])[H]

>  <h>  (36) 
<NA>

>  <Training>  (36) 
True

>  <Success>  (36) 
True

>  <enamine_searched>  (36) 
False

>  <enamine_id>  (36) 
nan

$$$$

     RDKit          3D

 46 48  0  0  0  0  0  0  0  0999 V2000
   -8.1451   -4.6763  -26.5264 C   0  0  0  0  0  0  0  0  0  0  0  0
   -8.6486   -4.9431  -25.1041 C   0  0  1  0  0  0  0  0  0  0  0  0
   -7.5865   -5.5204  -24.1622 C   0  0  0  0  0  0  0  0  0  0  0  0
   -6.6157   -4.5126  -23.5452 C   0  0  1  0  0  0  0  0  0  0  0  0
   -5.4293   -4.1377  -24.4377 C   0  0  0  0  0  0  0  0  0  0  0  0
   -4.6311   -3.6990  -23.8321 H   0  0  0  0  0  0  0  0  0  0  0  0
   -5.6918   -3.4148  -25.2155 H   0  0  0  0  0  0  0  0  0  0  0  0
   -5.0460   -5.0450  -24.9166 H   0  0  0  0  0  0  0  0  0  0  0  0
   -7.3279   -3.3416  -23.0192 N   0  0  0  0  0  0  0  0  0  0  0  0
   -6.7232   -2.7303  -21.9534 C   0  0  0  0  0  0  0  0  0  0  0  0
   -5.6745   -3.1495  -21.4835 O   0  0  0  0  0  0  0  0  0  0  0  0
   -7.3999   -1.5113  -21.3081 C   0  0  0  0  0  0  0  0  0  0  0  0
   -6.4999   -0.9961  -20.2283 C   0  0  0  0  0  0  0  0  0  0  0  0
   -6.7545   -1.2766  -18.9146 C   0  0  0  0  0  0  0  0  0  0  0  0
   -5.9358   -0.9891  -17.8735 N   0  0  0  0  0  0  0  0  0  0  0  0
   -4.8267   -0.3476  -18.1501 C   0  0  0  0  0  0  0  0  0  0  0  0
   -4.4429    0.0421  -19.4629 C   0  0  0  0  0  0  0  0  0  0  0  0
   -3.2929    0.8372  -19.7083 C   0  0  0  0  0  0  0  0  0  0  0  0
   -3.0503    1.3450  -20.9582 C   0  0  0  0  0  0  0  0  0  0  0  0
   -3.8875    0.9850  -22.0379 C   0  0  0  0  0  0  0  0  0  0  0  0
   -4.9636    0.1587  -21.8427 C   0  0  0  0  0  0  0  0  0  0  0  0
   -5.3033   -0.2931  -20.5377 C   0  0  0  0  0  0  0  0  0  0  0  0
   -5.6314   -0.0662  -22.6702 H   0  0  0  0  0  0  0  0  0  0  0  0
   -3.6940    1.3913  -23.0276 H   0  0  0  0  0  0  0  0  0  0  0  0
   -2.2654    2.0776  -21.1127 H   0  0  0  0  0  0  0  0  0  0  0  0
   -2.6568    1.1036  -18.8672 H   0  0  0  0  0  0  0  0  0  0  0  0
   -4.1981   -0.0787  -17.3009 H   0  0  0  0  0  0  0  0  0  0  0  0
   -7.7077   -1.7264  -18.6437 H   0  0  0  0  0  0  0  0  0  0  0  0
   -7.6373   -0.7551  -22.0665 H   0  0  0  0  0  0  0  0  0  0  0  0
   -8.3632   -1.8226  -20.8824 H   0  0  0  0  0  0  0  0  0  0  0  0
   -8.4117   -2.7074  -23.7819 C   0  0  1  0  0  0  0  0  0  0  0  0
   -7.9322   -1.6646  -24.7963 C   0  0  0  0  0  0  0  0  0  0  0  0
   -7.4430   -2.1178  -25.6630 H   0  0  0  0  0  0  0  0  0  0  0  0
   -8.8023   -1.1088  -25.1634 H   0  0  0  0  0  0  0  0  0  0  0  0
   -7.2270   -0.9509  -24.3567 H   0  0  0  0  0  0  0  0  0  0  0  0
   -9.3366   -3.7598  -24.4087 C   0  0  0  0  0  0  0  0  0  0  0  0
   -9.9619   -4.1651  -23.6039 H   0  0  0  0  0  0  0  0  0  0  0  0
  -10.0075   -3.2441  -25.1113 H   0  0  0  0  0  0  0  0  0  0  0  0
   -9.0237   -2.1773  -23.0412 H   0  0  0  0  0  0  0  0  0  0  0  0
   -6.1918   -4.9925  -22.6583 H   0  0  0  0  0  0  0  0  0  0  0  0
   -8.1007   -6.0229  -23.3330 H   0  0  0  0  0  0  0  0  0  0  0  0
   -6.9901   -6.2837  -24.6824 H   0  0  0  0  0  0  0  0  0  0  0  0
   -9.4216   -5.7177  -25.2074 H   0  0  0  0  0  0  0  0  0  0  0  0
   -7.9054   -5.6215  -27.0289 H   0  0  0  0  0  0  0  0  0  0  0  0
   -8.9143   -4.1766  -27.1275 H   0  0  0  0  0  0  0  0  0  0  0  0
   -7.2398   -4.0642  -26.5609 H   0  0  0  0  0  0  0  0  0  0  0  0
  1  2  1  0
  2  3  1  0
  3  4  1  0
  4  5  1  0
  5  6  1  0
  5  7  1  0
  5  8  1  0
  4  9  1  0
  9 10  1  0
 10 11  2  0
 10 12  1  0
 12 13  1  0
 13 14  2  0
 14 15  1  0
 15 16  2  0
 16 17  1  0
 17 18  2  0
 18 19  1  0
 19 20  2  0
 20 21  1  0
 21 22  2  0
 21 23  1  0
 20 24  1  0
 19 25  1  0
 18 26  1  0
 16 27  1  0
 14 28  1  0
 12 29  1  0
 12 30  1  0
  9 31  1  0
 31 32  1  0
 32 33  1  0
 32 34  1  0
 32 35  1  0
 31 36  1  0
 36 37  1  0
 36 38  1  0
 31 39  1  1
  4 40  1  1
  3 41  1  0
  3 42  1  0
  2 43  1  6
  1 44  1  0
  1 45  1  0
  1 46  1  0
 36  2  1  0
 22 13  1  0
 22 17  1  0
M  END
>  <cnnaffinities>  (37) 
[5.45047]

>  <score>  (37) 
5.45047

>  <index>  (37) 
38

>  <Smiles>  (37) 
C([C@]1(C([C@@](C([H])([H])[H])(N(C(=O)C(c2c(nc(c3c(c(c(c(c23)[H])[H])[H])[H])[H])[H])([H])[H])[C@@](C([H])([H])[H])(C1([H])[H])[H])[H])([H])[H])[H])([H])([H])[H]

>  <h>  (37) 
<NA>

>  <Training>  (37) 
True

>  <Success>  (37) 
True

>  <enamine_searched>  (37) 
False

>  <enamine_id>  (37) 
nan

$$$$

     RDKit          3D

 40 44  0  0  0  0  0  0  0  0999 V2000
   -8.0896   -5.5604  -25.2408 C   0  0  0  0  0  0  0  0  0  0  0  0
   -9.3404   -4.7041  -25.1619 C   0  0  0  0  0  0  0  0  0  0  0  0
  -10.4598   -5.1532  -25.3209 O   0  0  0  0  0  0  0  0  0  0  0  0
   -9.1314   -3.3782  -24.8952 N   0  0  0  0  0  0  0  0  0  0  0  0
  -10.2605   -2.4865  -24.5664 C   0  0  0  0  0  0  0  0  0  0  0  0
   -9.5349   -1.2538  -24.0049 C   0  0  2  0  0  0  0  0  0  0  0  0
   -8.3022   -1.2106  -24.9267 C   0  0  0  0  0  0  0  0  0  0  0  0
   -7.8885   -2.6626  -24.5497 C   0  0  1  0  0  0  0  0  0  0  0  0
   -7.8379   -2.5072  -23.0947 C   0  0  0  0  0  0  0  0  0  0  0  0
   -6.8389   -2.4690  -22.0847 C   0  0  0  0  0  0  0  0  0  0  0  0
   -5.7854   -3.0503  -21.9542 O   0  0  0  0  0  1  0  0  0  0  0  0
   -7.3375   -1.4935  -21.1798 N   0  0  0  0  0  0  0  0  0  0  0  0
   -6.4993   -0.9679  -20.1775 C   0  0  0  0  0  0  0  0  0  0  0  0
   -6.7482   -1.2566  -18.8659 C   0  0  0  0  0  0  0  0  0  0  0  0
   -5.8901   -0.9905  -17.8515 N   0  0  0  0  0  0  0  0  0  0  0  0
   -4.7571   -0.4093  -18.1613 C   0  0  0  0  0  0  0  0  0  0  0  0
   -4.4259    0.0212  -19.4753 C   0  0  0  0  0  0  0  0  0  0  0  0
   -3.2549    0.7764  -19.7232 C   0  0  0  0  0  0  0  0  0  0  0  0
   -3.0323    1.3189  -20.9599 C   0  0  0  0  0  0  0  0  0  0  0  0
   -3.9277    1.0499  -22.0198 C   0  0  0  0  0  0  0  0  0  0  0  0
   -5.0381    0.2724  -21.8173 C   0  0  0  0  0  0  0  0  0  0  0  0
   -5.3208   -0.2480  -20.5254 C   0  0  0  0  0  0  0  0  0  0  0  0
   -5.7108    0.0470  -22.6393 H   0  0  0  0  0  0  0  0  0  0  0  0
   -3.7514    1.4905  -22.9958 H   0  0  0  0  0  0  0  0  0  0  0  0
   -2.1855    1.9797  -21.1264 H   0  0  0  0  0  0  0  0  0  0  0  0
   -2.5857    0.9571  -18.8876 H   0  0  0  0  0  0  0  0  0  0  0  0
   -4.0309   -0.2255  -17.3648 H   0  0  0  0  0  0  0  0  0  0  0  0
   -7.6736   -1.7624  -18.6108 H   0  0  0  0  0  0  0  0  0  0  0  0
   -8.5855   -0.9719  -21.5718 C   0  0  0  0  0  0  0  0  0  0  0  0
   -9.2237   -0.1047  -21.0306 O   0  0  0  0  0  0  0  0  0  0  0  0
   -8.8825   -1.6805  -22.7329 N   0  0  0  0  0  0  0  0  0  0  0  0
   -6.9967   -3.0757  -25.0157 H   0  0  0  0  0  0  0  0  0  0  0  0
   -7.5728   -0.4668  -24.6047 H   0  0  0  0  0  0  0  0  0  0  0  0
   -8.5242   -1.0889  -25.9851 H   0  0  0  0  0  0  0  0  0  0  0  0
  -10.1372   -0.3613  -23.8770 H   0  0  0  0  0  0  0  0  0  0  0  0
  -10.9246   -2.9639  -23.8435 H   0  0  0  0  0  0  0  0  0  0  0  0
  -10.8210   -2.2556  -25.4780 H   0  0  0  0  0  0  0  0  0  0  0  0
   -8.3866   -6.5881  -25.4468 H   0  0  0  0  0  0  0  0  0  0  0  0
   -7.5393   -5.5253  -24.2938 H   0  0  0  0  0  0  0  0  0  0  0  0
   -7.4304   -5.2071  -26.0412 H   0  0  0  0  0  0  0  0  0  0  0  0
  1  2  1  0
  2  3  2  0
  2  4  1  0
  4  5  1  0
  5  6  1  0
  6  7  1  0
  7  8  1  0
  8  9  1  0
  9 10  2  0
 10 11  1  0
 10 12  1  0
 12 13  1  0
 13 14  2  0
 14 15  1  0
 15 16  2  0
 16 17  1  0
 17 18  2  0
 18 19  1  0
 19 20  2  0
 20 21  1  0
 21 22  2  0
 21 23  1  0
 20 24  1  0
 19 25  1  0
 18 26  1  0
 16 27  1  0
 14 28  1  0
 12 29  1  0
 29 30  2  0
 29 31  1  0
  8 32  1  6
  7 33  1  0
  7 34  1  0
  6 35  1  1
  5 36  1  0
  5 37  1  0
  1 38  1  0
  1 39  1  0
  1 40  1  0
  8  4  1  0
 31  9  1  0
 31  6  1  0
 22 13  1  0
 22 17  1  0
M  CHG  1  11  -1
M  END
>  <cnnaffinities>  (38) 
[5.60149, 5.65892]

>  <score>  (38) 
5.60149

>  <index>  (38) 
39

>  <Smiles>  (38) 
C(C(=O)N1C([C@@]2(C([C@]1(c1c([O-])n(c3c(nc(c4c(c(c(c(c34)[H])[H])[H])[H])[H])[H])c(=O)n21)[H])([H])[H])[H])([H])[H])([H])([H])[H]

>  <h>  (38) 
<NA>

>  <Training>  (38) 
True

>  <Success>  (38) 
True

>  <enamine_searched>  (38) 
False

>  <enamine_id>  (38) 
nan

$$$$

     RDKit          3D

 40 42  0  0  0  0  0  0  0  0999 V2000
   -9.3139   -6.6187  -25.1193 C   0  0  0  0  0  0  0  0  0  0  0  0
   -8.9764   -5.7910  -23.8841 C   0  0  0  0  0  0  0  0  0  0  0  0
   -7.5125   -5.9671  -23.4843 C   0  0  0  0  0  0  0  0  0  0  0  0
   -7.2401   -5.1699  -22.2239 C   0  0  0  0  0  0  0  0  0  0  0  0
   -7.6259   -3.7716  -22.3459 N   0  0  0  0  0  0  0  0  0  0  0  0
   -6.7961   -2.8458  -21.7813 C   0  0  0  0  0  0  0  0  0  0  0  0
   -5.6080   -3.0769  -21.6053 O   0  0  0  0  0  0  0  0  0  0  0  0
   -7.4008   -1.5227  -21.2912 C   0  0  0  0  0  0  0  0  0  0  0  0
   -6.4984   -0.9899  -20.2159 C   0  0  0  0  0  0  0  0  0  0  0  0
   -6.7513   -1.2682  -18.8993 C   0  0  0  0  0  0  0  0  0  0  0  0
   -5.9264   -0.9886  -17.8604 N   0  0  0  0  0  0  0  0  0  0  0  0
   -4.8133   -0.3547  -18.1420 C   0  0  0  0  0  0  0  0  0  0  0  0
   -4.4374    0.0397  -19.4557 C   0  0  0  0  0  0  0  0  0  0  0  0
   -3.2849    0.8284  -19.7055 C   0  0  0  0  0  0  0  0  0  0  0  0
   -3.0473    1.3371  -20.9561 C   0  0  0  0  0  0  0  0  0  0  0  0
   -3.8862    0.9745  -22.0340 C   0  0  0  0  0  0  0  0  0  0  0  0
   -4.9606    0.1471  -21.8372 C   0  0  0  0  0  0  0  0  0  0  0  0
   -5.3007   -0.2910  -20.5284 C   0  0  0  0  0  0  0  0  0  0  0  0
   -5.6220   -0.0904  -22.6646 H   0  0  0  0  0  0  0  0  0  0  0  0
   -3.6980    1.3829  -23.0241 H   0  0  0  0  0  0  0  0  0  0  0  0
   -2.2592    2.0657  -21.1138 H   0  0  0  0  0  0  0  0  0  0  0  0
   -2.6405    1.0818  -18.8676 H   0  0  0  0  0  0  0  0  0  0  0  0
   -4.1704   -0.0989  -17.3002 H   0  0  0  0  0  0  0  0  0  0  0  0
   -7.7054   -1.7135  -18.6226 H   0  0  0  0  0  0  0  0  0  0  0  0
   -7.5456   -0.8269  -22.1297 H   0  0  0  0  0  0  0  0  0  0  0  0
   -8.3980   -1.7136  -20.8770 H   0  0  0  0  0  0  0  0  0  0  0  0
   -8.9827   -3.5076  -22.7946 C   0  0  0  0  0  0  0  0  0  0  0  0
   -9.2795   -4.3025  -24.0646 C   0  0  0  0  0  0  0  0  0  0  0  0
  -10.3303   -4.1516  -24.3415 H   0  0  0  0  0  0  0  0  0  0  0  0
   -8.6579   -3.9208  -24.8844 H   0  0  0  0  0  0  0  0  0  0  0  0
   -9.0865   -2.4344  -22.9826 H   0  0  0  0  0  0  0  0  0  0  0  0
   -9.7083   -3.7799  -22.0110 H   0  0  0  0  0  0  0  0  0  0  0  0
   -7.8394   -5.6510  -21.4406 H   0  0  0  0  0  0  0  0  0  0  0  0
   -6.1938   -5.1805  -21.9171 H   0  0  0  0  0  0  0  0  0  0  0  0
   -6.8597   -5.6732  -24.3152 H   0  0  0  0  0  0  0  0  0  0  0  0
   -7.3045   -7.0225  -23.2640 H   0  0  0  0  0  0  0  0  0  0  0  0
   -9.5775   -6.1473  -23.0400 H   0  0  0  0  0  0  0  0  0  0  0  0
   -9.1350   -7.6848  -24.9428 H   0  0  0  0  0  0  0  0  0  0  0  0
  -10.3590   -6.5006  -25.4252 H   0  0  0  0  0  0  0  0  0  0  0  0
   -8.6810   -6.3117  -25.9596 H   0  0  0  0  0  0  0  0  0  0  0  0
  1  2  1  0
  2  3  1  0
  3  4  1  0
  4  5  1  0
  5  6  1  0
  6  7  2  0
  6  8  1  0
  8  9  1  0
  9 10  2  0
 10 11  1  0
 11 12  2  0
 12 13  1  0
 13 14  2  0
 14 15  1  0
 15 16  2  0
 16 17  1  0
 17 18  2  0
 17 19  1  0
 16 20  1  0
 15 21  1  0
 14 22  1  0
 12 23  1  0
 10 24  1  0
  8 25  1  0
  8 26  1  0
  5 27  1  0
 27 28  1  0
 28 29  1  0
 28 30  1  0
 27 31  1  0
 27 32  1  0
  4 33  1  0
  4 34  1  0
  3 35  1  0
  3 36  1  0
  2 37  1  0
  1 38  1  0
  1 39  1  0
  1 40  1  0
 28  2  1  0
 18  9  1  0
 18 13  1  0
M  END
>  <cnnaffinities>  (39) 
[5.1646, 5.16448, 4.92754, 4.91417, 4.91413]

>  <score>  (39) 
5.1646

>  <index>  (39) 
40

>  <Smiles>  (39) 
C(C1(C(C(N(C(=O)C(c2c(nc(c3c(c(c(c(c23)[H])[H])[H])[H])[H])[H])([H])[H])C(C1([H])[H])([H])[H])([H])[H])([H])[H])[H])([H])([H])[H]

>  <h>  (39) 
<NA>

>  <Training>  (39) 
True

>  <Success>  (39) 
True

>  <enamine_searched>  (39) 
False

>  <enamine_id>  (39) 
nan

$$$$

     RDKit          3D

 67 71  0  0  0  0  0  0  0  0999 V2000
   -7.5795    3.0011  -22.0154 C   0  0  0  0  0  0  0  0  0  0  0  0
   -8.7339    2.4872  -22.7469 N   0  0  0  0  0  0  0  0  0  0  0  0
   -8.4914    1.6926  -23.8333 C   0  0  0  0  0  0  0  0  0  0  0  0
   -7.3539    1.4280  -24.2028 O   0  0  0  0  0  0  0  0  0  0  0  0
   -9.7099    1.1267  -24.5742 C   0  0  0  0  0  0  0  0  0  0  0  0
  -10.1533   -0.0975  -23.9374 N   0  0  0  0  0  0  0  0  0  0  0  0
   -9.2550   -1.2422  -23.9042 C   0  0  0  0  0  0  0  0  0  0  0  0
   -9.3192   -1.9746  -22.5346 C   0  0  2  0  0  0  0  0  0  0  0  0
   -8.6880   -1.0408  -21.4531 C   0  0  0  0  0  0  0  0  0  0  0  0
   -9.1981   -0.0669  -20.9353 O   0  0  0  0  0  0  0  0  0  0  0  0
   -7.3990   -1.4739  -21.2135 N   0  0  0  0  0  0  0  0  0  0  0  0
   -6.5594   -0.9641  -20.1941 C   0  0  0  0  0  0  0  0  0  0  0  0
   -6.7744   -1.3027  -18.8785 C   0  0  0  0  0  0  0  0  0  0  0  0
   -5.8718   -1.0900  -17.8909 N   0  0  0  0  0  0  0  0  0  0  0  0
   -4.7491   -0.4965  -18.2069 C   0  0  0  0  0  0  0  0  0  0  0  0
   -4.4336   -0.0335  -19.5137 C   0  0  0  0  0  0  0  0  0  0  0  0
   -3.2452    0.6898  -19.7870 C   0  0  0  0  0  0  0  0  0  0  0  0
   -3.0296    1.2285  -21.0227 C   0  0  0  0  0  0  0  0  0  0  0  0
   -3.9660    1.0271  -22.0624 C   0  0  0  0  0  0  0  0  0  0  0  0
   -5.0934    0.2665  -21.8413 C   0  0  0  0  0  0  0  0  0  0  0  0
   -5.3759   -0.2410  -20.5428 C   0  0  0  0  0  0  0  0  0  0  0  0
   -5.8018    0.0981  -22.6488 H   0  0  0  0  0  0  0  0  0  0  0  0
   -3.7986    1.4663  -23.0424 H   0  0  0  0  0  0  0  0  0  0  0  0
   -2.1510    1.8397  -21.2090 H   0  0  0  0  0  0  0  0  0  0  0  0
   -2.5613    0.8700  -18.9627 H   0  0  0  0  0  0  0  0  0  0  0  0
   -4.0205   -0.3372  -17.4109 H   0  0  0  0  0  0  0  0  0  0  0  0
   -7.6934   -1.8035  -18.5787 H   0  0  0  0  0  0  0  0  0  0  0  0
   -6.9938   -2.6128  -22.0088 C   0  0  0  0  0  0  0  0  0  0  0  0
   -8.3435   -3.1852  -22.4719 C   0  0  2  0  0  0  0  0  0  0  0  0
   -8.2376   -3.9875  -23.7613 C   0  0  0  0  0  0  0  0  0  0  0  0
   -7.2781   -5.4758  -23.5367 S   0  0  0  0  0  0  0  0  0  0  0  0
   -5.8816   -5.1067  -23.3844 O   0  0  0  0  0  0  0  0  0  0  0  0
   -7.9509   -6.3009  -22.5382 O   0  0  0  0  0  0  0  0  0  0  0  0
   -7.4287   -6.2408  -24.9990 N   0  0  0  0  0  0  0  0  0  0  0  0
   -8.6914   -6.9087  -25.2666 C   0  0  0  0  0  0  0  0  0  0  0  0
   -9.5214   -6.2261  -25.5017 H   0  0  0  0  0  0  0  0  0  0  0  0
   -8.5473   -7.5741  -26.1202 H   0  0  0  0  0  0  0  0  0  0  0  0
   -8.9593   -7.5062  -24.3949 H   0  0  0  0  0  0  0  0  0  0  0  0
   -6.7451   -5.6471  -26.1379 C   0  0  0  0  0  0  0  0  0  0  0  0
   -7.2776   -4.7913  -26.5791 H   0  0  0  0  0  0  0  0  0  0  0  0
   -6.6348   -6.4156  -26.9069 H   0  0  0  0  0  0  0  0  0  0  0  0
   -5.7499   -5.3244  -25.8314 H   0  0  0  0  0  0  0  0  0  0  0  0
   -9.2323   -4.2820  -24.1064 H   0  0  0  0  0  0  0  0  0  0  0  0
   -7.7336   -3.4019  -24.5394 H   0  0  0  0  0  0  0  0  0  0  0  0
   -8.6777   -3.8455  -21.6669 H   0  0  0  0  0  0  0  0  0  0  0  0
   -6.3618   -2.3045  -22.8552 H   0  0  0  0  0  0  0  0  0  0  0  0
   -6.4069   -3.3261  -21.4215 H   0  0  0  0  0  0  0  0  0  0  0  0
  -10.7938   -2.2917  -22.2839 C   0  0  0  0  0  0  0  0  0  0  0  0
  -11.2380   -3.4107  -21.5609 C   0  0  0  0  0  0  0  0  0  0  0  0
  -12.5668   -3.4808  -21.1714 C   0  0  0  0  0  0  0  0  0  0  0  0
  -12.9487   -4.3711  -20.2410 F   0  0  0  0  0  0  0  0  0  0  0  0
  -13.5396   -2.6014  -21.6191 C   0  0  0  0  0  0  0  0  0  0  0  0
  -13.1335   -1.5655  -22.4267 C   0  0  0  0  0  0  0  0  0  0  0  0
  -11.7812   -1.3880  -22.7144 C   0  0  0  0  0  0  0  0  0  0  0  0
  -11.4375   -0.1623  -23.4884 C   0  0  0  0  0  0  0  0  0  0  0  0
  -12.2616    0.7211  -23.6986 O   0  0  0  0  0  0  0  0  0  0  0  0
  -13.8439   -0.8520  -22.8281 H   0  0  0  0  0  0  0  0  0  0  0  0
  -14.5647   -2.7330  -21.2932 H   0  0  0  0  0  0  0  0  0  0  0  0
  -10.5640   -4.1858  -21.2127 H   0  0  0  0  0  0  0  0  0  0  0  0
   -9.5192   -1.9393  -24.7122 H   0  0  0  0  0  0  0  0  0  0  0  0
   -8.2460   -0.8640  -24.0932 H   0  0  0  0  0  0  0  0  0  0  0  0
   -9.4252    0.9383  -25.6198 H   0  0  0  0  0  0  0  0  0  0  0  0
  -10.5650    1.8095  -24.5675 H   0  0  0  0  0  0  0  0  0  0  0  0
   -9.5886    2.3469  -22.2165 H   0  0  0  0  0  0  0  0  0  0  0  0
   -7.8898    3.7585  -21.2871 H   0  0  0  0  0  0  0  0  0  0  0  0
   -7.0300    2.2055  -21.4889 H   0  0  0  0  0  0  0  0  0  0  0  0
   -6.8869    3.4559  -22.7307 H   0  0  0  0  0  0  0  0  0  0  0  0
  1  2  1  0
  2  3  1  0
  3  4  2  0
  3  5  1  0
  5  6  1  0
  6  7  1  0
  8  7  1  6
  8  9  1  0
  9 10  2  0
  9 11  1  0
 11 12  1  0
 12 13  2  0
 13 14  1  0
 14 15  2  0
 15 16  1  0
 16 17  2  0
 17 18  1  0
 18 19  2  0
 19 20  1  0
 20 21  2  0
 20 22  1  0
 19 23  1  0
 18 24  1  0
 17 25  1  0
 15 26  1  0
 13 27  1  0
 11 28  1  0
 28 29  1  0
 29 30  1  0
 30 31  1  0
 31 32  2  0
 31 33  2  0
 31 34  1  0
 34 35  1  0
 35 36  1  0
 35 37  1  0
 35 38  1  0
 34 39  1  0
 39 40  1  0
 39 41  1  0
 39 42  1  0
 30 43  1  0
 30 44  1  0
 29 45  1  1
 28 46  1  0
 28 47  1  0
  8 48  1  0
 48 49  2  0
 49 50  1  0
 50 51  1  0
 50 52  2  0
 52 53  1  0
 53 54  2  0
 54 55  1  0
 55 56  2  0
 53 57  1  0
 52 58  1  0
 49 59  1  0
  7 60  1  0
  7 61  1  0
  5 62  1  0
  5 63  1  0
  2 64  1  0
  1 65  1  0
  1 66  1  0
  1 67  1  0
 55  6  1  0
 29  8  1  0
 54 48  1  0
 21 12  1  0
 21 16  1  0
M  END
>  <cnnaffinities>  (40) 
[7.01569]

>  <score>  (40) 
7.01569

>  <index>  (40) 
41

>  <Smiles>  (40) 
C(N(C(=O)C(N1C([C@@]2(C(=O)N(c3c(nc(c4c(c(c(c(c34)[H])[H])[H])[H])[H])[H])C([C@@]2(C(S(=O)(=O)N(C([H])([H])[H])C([H])([H])[H])([H])[H])[H])([H])[H])c2c(c(F)c(c(c2C1=O)[H])[H])[H])([H])[H])([H])[H])[H])([H])([H])[H]

>  <h>  (40) 
<NA>

>  <Training>  (40) 
True

>  <Success>  (40) 
True

>  <enamine_searched>  (40) 
False

>  <enamine_id>  (40) 
nan

$$$$

     RDKit          3D

 67 72  0  0  0  0  0  0  0  0999 V2000
   -7.7968   -3.3442  -29.1351 C   0  0  0  0  0  0  0  0  0  0  0  0
   -8.5108   -2.4182  -28.2738 N   0  0  0  0  0  0  0  0  0  0  0  0
   -7.8638   -1.7646  -27.2789 C   0  0  0  0  0  0  0  0  0  0  0  0
   -6.7281   -2.0412  -26.9122 O   0  0  0  0  0  0  0  0  0  0  0  0
   -8.6792   -0.6289  -26.6565 C   0  0  0  0  0  0  0  0  0  0  0  0
   -9.2889   -1.0533  -25.4099 N   0  0  0  0  0  0  0  0  0  0  0  0
   -8.6000   -0.7049  -24.1736 C   0  0  0  0  0  0  0  0  0  0  0  0
   -9.0567   -1.5319  -22.9472 C   0  0  2  0  0  0  0  0  0  0  0  0
   -8.5323   -0.7800  -21.6962 C   0  0  0  0  0  0  0  0  0  0  0  0
   -8.9667    0.2456  -21.2139 O   0  0  0  0  0  0  0  0  0  0  0  0
   -7.4076   -1.4395  -21.2407 N   0  0  0  0  0  0  0  0  0  0  0  0
   -6.5391   -0.9619  -20.2267 C   0  0  0  0  0  0  0  0  0  0  0  0
   -6.7837   -1.2627  -18.9150 C   0  0  0  0  0  0  0  0  0  0  0  0
   -5.9137   -1.0309  -17.8995 N   0  0  0  0  0  0  0  0  0  0  0  0
   -4.7823   -0.4401  -18.1900 C   0  0  0  0  0  0  0  0  0  0  0  0
   -4.4329   -0.0058  -19.4987 C   0  0  0  0  0  0  0  0  0  0  0  0
   -3.2552    0.7433  -19.7503 C   0  0  0  0  0  0  0  0  0  0  0  0
   -3.0412    1.2939  -20.9849 C   0  0  0  0  0  0  0  0  0  0  0  0
   -3.9227    1.0124  -22.0537 C   0  0  0  0  0  0  0  0  0  0  0  0
   -5.0281    0.2250  -21.8529 C   0  0  0  0  0  0  0  0  0  0  0  0
   -5.3318   -0.2685  -20.5545 C   0  0  0  0  0  0  0  0  0  0  0  0
   -5.6995   -0.0006  -22.6770 H   0  0  0  0  0  0  0  0  0  0  0  0
   -3.7376    1.4479  -23.0299 H   0  0  0  0  0  0  0  0  0  0  0  0
   -2.1882    1.9445  -21.1517 H   0  0  0  0  0  0  0  0  0  0  0  0
   -2.6030    0.9498  -18.9061 H   0  0  0  0  0  0  0  0  0  0  0  0
   -4.0763   -0.2593  -17.3793 H   0  0  0  0  0  0  0  0  0  0  0  0
   -7.7184   -1.7601  -18.6627 H   0  0  0  0  0  0  0  0  0  0  0  0
   -7.0571   -2.6222  -21.9908 C   0  0  0  0  0  0  0  0  0  0  0  0
   -8.3286   -2.9139  -22.7851 C   0  0  2  0  0  0  0  0  0  0  0  0
   -8.0164   -3.7155  -24.0403 C   0  0  0  0  0  0  0  0  0  0  0  0
   -9.2345   -4.2456  -24.5971 N   0  0  0  0  0  0  0  0  0  0  0  0
   -9.3237   -4.9188  -25.7813 C   0  0  0  0  0  0  0  0  0  0  0  0
  -10.8574   -5.1090  -26.5946 S   0  0  0  0  0  0  0  0  0  0  0  0
  -10.0541   -6.0309  -27.8126 C   0  0  0  0  0  0  0  0  0  0  0  0
   -8.7816   -6.1868  -27.6456 N   0  0  0  0  0  0  0  0  0  0  0  0
   -8.3458   -5.5696  -26.4974 C   0  0  0  0  0  0  0  0  0  0  0  0
   -6.8904   -5.6707  -26.1417 C   0  0  0  0  0  0  0  0  0  0  0  0
   -6.3732   -6.2660  -26.8986 H   0  0  0  0  0  0  0  0  0  0  0  0
   -6.7471   -6.1662  -25.1746 H   0  0  0  0  0  0  0  0  0  0  0  0
   -6.4181   -4.6813  -26.0919 H   0  0  0  0  0  0  0  0  0  0  0  0
  -10.6015   -6.4073  -28.6644 H   0  0  0  0  0  0  0  0  0  0  0  0
  -10.1046   -3.9694  -24.1574 H   0  0  0  0  0  0  0  0  0  0  0  0
   -7.3439   -4.5380  -23.7586 H   0  0  0  0  0  0  0  0  0  0  0  0
   -7.4920   -3.0976  -24.7828 H   0  0  0  0  0  0  0  0  0  0  0  0
   -8.9800   -3.5304  -22.1484 H   0  0  0  0  0  0  0  0  0  0  0  0
   -6.1862   -2.4571  -22.6507 H   0  0  0  0  0  0  0  0  0  0  0  0
   -6.7899   -3.4301  -21.2991 H   0  0  0  0  0  0  0  0  0  0  0  0
  -10.5675   -1.6524  -22.9680 C   0  0  0  0  0  0  0  0  0  0  0  0
  -11.2650   -2.0170  -21.8142 C   0  0  0  0  0  0  0  0  0  0  0  0
  -12.6315   -2.2422  -21.8626 C   0  0  0  0  0  0  0  0  0  0  0  0
  -13.3998   -2.9650  -20.4857 Cl  0  0  0  0  0  0  0  0  0  0  0  0
  -13.3837   -1.9270  -22.9953 C   0  0  0  0  0  0  0  0  0  0  0  0
  -12.6962   -1.5113  -24.1221 C   0  0  0  0  0  0  0  0  0  0  0  0
  -11.3047   -1.4927  -24.1448 C   0  0  0  0  0  0  0  0  0  0  0  0
  -10.6084   -1.4038  -25.4617 C   0  0  0  0  0  0  0  0  0  0  0  0
  -11.1826   -1.6218  -26.5264 O   0  0  0  0  0  0  0  0  0  0  0  0
  -13.2208   -1.2149  -25.0250 H   0  0  0  0  0  0  0  0  0  0  0  0
  -14.4656   -2.0480  -23.0143 H   0  0  0  0  0  0  0  0  0  0  0  0
  -10.7289   -2.1303  -20.8836 H   0  0  0  0  0  0  0  0  0  0  0  0
   -8.7598    0.3587  -23.9488 H   0  0  0  0  0  0  0  0  0  0  0  0
   -7.5203   -0.8409  -24.3386 H   0  0  0  0  0  0  0  0  0  0  0  0
   -8.0189    0.2185  -26.4505 H   0  0  0  0  0  0  0  0  0  0  0  0
   -9.4676   -0.3048  -27.3470 H   0  0  0  0  0  0  0  0  0  0  0  0
   -9.5108   -2.2869  -28.3582 H   0  0  0  0  0  0  0  0  0  0  0  0
   -7.1107   -3.9280  -28.5132 H   0  0  0  0  0  0  0  0  0  0  0  0
   -7.2220   -2.8182  -29.9110 H   0  0  0  0  0  0  0  0  0  0  0  0
   -8.4989   -4.0307  -29.6110 H   0  0  0  0  0  0  0  0  0  0  0  0
  1  2  1  0
  2  3  1  0
  3  4  2  0
  3  5  1  0
  5  6  1  0
  6  7  1  0
  8  7  1  6
  8  9  1  0
  9 10  2  0
  9 11  1  0
 11 12  1  0
 12 13  2  0
 13 14  1  0
 14 15  2  0
 15 16  1  0
 16 17  2  0
 17 18  1  0
 18 19  2  0
 19 20  1  0
 20 21  2  0
 20 22  1  0
 19 23  1  0
 18 24  1  0
 17 25  1  0
 15 26  1  0
 13 27  1  0
 11 28  1  0
 28 29  1  0
 29 30  1  0
 30 31  1  0
 31 32  1  0
 32 33  1  0
 33 34  1  0
 34 35  2  0
 35 36  1  0
 36 37  1  0
 37 38  1  0
 37 39  1  0
 37 40  1  0
 34 41  1  0
 31 42  1  0
 30 43  1  0
 30 44  1  0
 29 45  1  1
 28 46  1  0
 28 47  1  0
  8 48  1  0
 48 49  2  0
 49 50  1  0
 50 51  1  0
 50 52  2  0
 52 53  1  0
 53 54  2  0
 54 55  1  0
 55 56  2  0
 53 57  1  0
 52 58  1  0
 49 59  1  0
  7 60  1  0
  7 61  1  0
  5 62  1  0
  5 63  1  0
  2 64  1  0
  1 65  1  0
  1 66  1  0
  1 67  1  0
 55  6  1  0
 29  8  1  0
 36 32  2  0
 54 48  1  0
 21 12  1  0
 21 16  1  0
M  END
>  <cnnaffinities>  (41) 
[6.3515]

>  <score>  (41) 
6.3515

>  <index>  (41) 
43

>  <Smiles>  (41) 
C(N(C(=O)C(N1C([C@@]2(C(=O)N(c3c(nc(c4c(c(c(c(c34)[H])[H])[H])[H])[H])[H])C([C@@]2(C(N(c2sc(nc2C([H])([H])[H])[H])[H])([H])[H])[H])([H])[H])c2c(c(Cl)c(c(c2C1=O)[H])[H])[H])([H])[H])([H])[H])[H])([H])([H])[H]

>  <h>  (41) 
<NA>

>  <Training>  (41) 
True

>  <Success>  (41) 
True

>  <enamine_searched>  (41) 
False

>  <enamine_id>  (41) 
nan

$$$$

     RDKit          3D

 60 64  0  0  0  0  0  0  0  0999 V2000
   -7.3335    3.3720  -21.8644 C   0  0  0  0  0  0  0  0  0  0  0  0
   -8.2497    2.9210  -22.9010 N   0  0  0  0  0  0  0  0  0  0  0  0
   -7.7118    2.2102  -23.9352 C   0  0  0  0  0  0  0  0  0  0  0  0
   -6.5072    2.0413  -24.0565 O   0  0  0  0  0  0  0  0  0  0  0  0
   -8.6958    1.6189  -24.9449 C   0  0  0  0  0  0  0  0  0  0  0  0
   -9.3878    0.4784  -24.3702 N   0  0  0  0  0  0  0  0  0  0  0  0
   -8.6583   -0.7723  -24.1955 C   0  0  0  0  0  0  0  0  0  0  0  0
   -9.0617   -1.5001  -22.8868 C   0  0  2  0  0  0  0  0  0  0  0  0
   -8.5154   -0.7392  -21.6492 C   0  0  0  0  0  0  0  0  0  0  0  0
   -8.9540    0.2759  -21.1488 O   0  0  0  0  0  0  0  0  0  0  0  0
   -7.4042   -1.4135  -21.2012 N   0  0  0  0  0  0  0  0  0  0  0  0
   -6.5313   -0.9414  -20.1953 C   0  0  0  0  0  0  0  0  0  0  0  0
   -6.7746   -1.2482  -18.8856 C   0  0  0  0  0  0  0  0  0  0  0  0
   -5.9069   -1.0035  -17.8725 N   0  0  0  0  0  0  0  0  0  0  0  0
   -4.7792   -0.4081  -18.1720 C   0  0  0  0  0  0  0  0  0  0  0  0
   -4.4365    0.0246  -19.4839 C   0  0  0  0  0  0  0  0  0  0  0  0
   -3.2683    0.7811  -19.7439 C   0  0  0  0  0  0  0  0  0  0  0  0
   -3.0532    1.3124  -20.9862 C   0  0  0  0  0  0  0  0  0  0  0  0
   -3.9419    1.0281  -22.0515 C   0  0  0  0  0  0  0  0  0  0  0  0
   -5.0490    0.2451  -21.8368 C   0  0  0  0  0  0  0  0  0  0  0  0
   -5.3338   -0.2495  -20.5380 C   0  0  0  0  0  0  0  0  0  0  0  0
   -5.7152    0.0126  -22.6630 H   0  0  0  0  0  0  0  0  0  0  0  0
   -3.7762    1.4683  -23.0287 H   0  0  0  0  0  0  0  0  0  0  0  0
   -2.2005    1.9617  -21.1587 H   0  0  0  0  0  0  0  0  0  0  0  0
   -2.6115    0.9847  -18.9040 H   0  0  0  0  0  0  0  0  0  0  0  0
   -4.0668   -0.2191  -17.3674 H   0  0  0  0  0  0  0  0  0  0  0  0
   -7.7047   -1.7570  -18.6363 H   0  0  0  0  0  0  0  0  0  0  0  0
   -7.0675   -2.5966  -21.9494 C   0  0  0  0  0  0  0  0  0  0  0  0
   -8.3366   -2.8749  -22.7577 C   0  0  2  0  0  0  0  0  0  0  0  0
   -7.9915   -3.6303  -24.0264 C   0  0  0  0  0  0  0  0  0  0  0  0
   -9.1617   -3.9158  -24.7470 O   0  0  0  0  0  0  0  0  0  0  0  0
   -8.8892   -4.5710  -25.9618 C   0  0  0  0  0  0  0  0  0  0  0  0
   -8.2931   -3.9392  -26.6384 H   0  0  0  0  0  0  0  0  0  0  0  0
   -8.3427   -5.5129  -25.8022 H   0  0  0  0  0  0  0  0  0  0  0  0
   -9.8437   -4.7967  -26.4411 H   0  0  0  0  0  0  0  0  0  0  0  0
   -7.2872   -3.0343  -24.6317 H   0  0  0  0  0  0  0  0  0  0  0  0
   -7.4676   -4.5604  -23.7479 H   0  0  0  0  0  0  0  0  0  0  0  0
   -8.9810   -3.5282  -22.1698 H   0  0  0  0  0  0  0  0  0  0  0  0
   -6.1932   -2.4423  -22.6079 H   0  0  0  0  0  0  0  0  0  0  0  0
   -6.8260   -3.4090  -21.2571 H   0  0  0  0  0  0  0  0  0  0  0  0
  -10.5762   -1.5515  -22.8336 C   0  0  0  0  0  0  0  0  0  0  0  0
  -11.2216   -2.4515  -21.9812 C   0  0  0  0  0  0  0  0  0  0  0  0
  -12.6001   -2.4633  -21.8906 C   0  0  0  0  0  0  0  0  0  0  0  0
  -13.3558   -3.5775  -20.7960 Cl  0  0  0  0  0  0  0  0  0  0  0  0
  -13.3949   -1.5905  -22.6314 C   0  0  0  0  0  0  0  0  0  0  0  0
  -12.7613   -0.6694  -23.4390 C   0  0  0  0  0  0  0  0  0  0  0  0
  -11.3704   -0.6236  -23.5200 C   0  0  0  0  0  0  0  0  0  0  0  0
  -10.7551    0.5030  -24.2948 C   0  0  0  0  0  0  0  0  0  0  0  0
  -11.4279    1.3938  -24.7919 O   0  0  0  0  0  0  0  0  0  0  0  0
  -13.3244    0.0603  -24.0060 H   0  0  0  0  0  0  0  0  0  0  0  0
  -14.4764   -1.6169  -22.5447 H   0  0  0  0  0  0  0  0  0  0  0  0
  -10.6617   -3.1352  -21.3545 H   0  0  0  0  0  0  0  0  0  0  0  0
   -8.8692   -1.4441  -25.0361 H   0  0  0  0  0  0  0  0  0  0  0  0
   -7.5818   -0.5661  -24.1968 H   0  0  0  0  0  0  0  0  0  0  0  0
   -9.4538    2.3463  -25.2536 H   0  0  0  0  0  0  0  0  0  0  0  0
   -8.1308    1.3120  -25.8327 H   0  0  0  0  0  0  0  0  0  0  0  0
   -9.2100    2.7511  -22.6238 H   0  0  0  0  0  0  0  0  0  0  0  0
   -6.6534    4.1286  -22.2671 H   0  0  0  0  0  0  0  0  0  0  0  0
   -6.7388    2.5237  -21.4891 H   0  0  0  0  0  0  0  0  0  0  0  0
   -7.8997    3.8370  -21.0553 H   0  0  0  0  0  0  0  0  0  0  0  0
  1  2  1  0
  2  3  1  0
  3  4  2  0
  3  5  1  0
  5  6  1  0
  6  7  1  0
  8  7  1  6
  8  9  1  0
  9 10  2  0
  9 11  1  0
 11 12  1  0
 12 13  2  0
 13 14  1  0
 14 15  2  0
 15 16  1  0
 16 17  2  0
 17 18  1  0
 18 19  2  0
 19 20  1  0
 20 21  2  0
 20 22  1  0
 19 23  1  0
 18 24  1  0
 17 25  1  0
 15 26  1  0
 13 27  1  0
 11 28  1  0
 28 29  1  0
 29 30  1  0
 30 31  1  0
 31 32  1  0
 32 33  1  0
 32 34  1  0
 32 35  1  0
 30 36  1  0
 30 37  1  0
 29 38  1  1
 28 39  1  0
 28 40  1  0
  8 41  1  0
 41 42  2  0
 42 43  1  0
 43 44  1  0
 43 45  2  0
 45 46  1  0
 46 47  2  0
 47 48  1  0
 48 49  2  0
 46 50  1  0
 45 51  1  0
 42 52  1  0
  7 53  1  0
  7 54  1  0
  5 55  1  0
  5 56  1  0
  2 57  1  0
  1 58  1  0
  1 59  1  0
  1 60  1  0
 48  6  1  0
 29  8  1  0
 47 41  1  0
 21 12  1  0
 21 16  1  0
M  END
>  <cnnaffinities>  (42) 
[6.64492, 6.71565]

>  <score>  (42) 
6.64492

>  <index>  (42) 
44

>  <Smiles>  (42) 
C(N(C(=O)C(N1C([C@@]2(C(=O)N(c3c(nc(c4c(c(c(c(c34)[H])[H])[H])[H])[H])[H])C([C@@]2(C(OC([H])([H])[H])([H])[H])[H])([H])[H])c2c(c(Cl)c(c(c2C1=O)[H])[H])[H])([H])[H])([H])[H])[H])([H])([H])[H]

>  <h>  (42) 
<NA>

>  <Training>  (42) 
True

>  <Success>  (42) 
True

>  <enamine_searched>  (42) 
False

>  <enamine_id>  (42) 
nan

$$$$

     RDKit          3D

 66 71  0  0  0  0  0  0  0  0999 V2000
   -7.3550    3.3567  -21.8601 C   0  0  0  0  0  0  0  0  0  0  0  0
   -8.2994    2.8987  -22.8687 N   0  0  0  0  0  0  0  0  0  0  0  0
   -7.7836    2.1885  -23.9152 C   0  0  0  0  0  0  0  0  0  0  0  0
   -6.5825    2.0082  -24.0539 O   0  0  0  0  0  0  0  0  0  0  0  0
   -8.7850    1.6030  -24.9103 C   0  0  0  0  0  0  0  0  0  0  0  0
   -9.4513    0.4561  -24.3188 N   0  0  0  0  0  0  0  0  0  0  0  0
   -8.6975   -0.7804  -24.1575 C   0  0  0  0  0  0  0  0  0  0  0  0
   -9.0827   -1.5268  -22.8542 C   0  0  2  0  0  0  0  0  0  0  0  0
   -8.5328   -0.7661  -21.6162 C   0  0  0  0  0  0  0  0  0  0  0  0
   -8.9865    0.2317  -21.0938 O   0  0  0  0  0  0  0  0  0  0  0  0
   -7.3935   -1.4151  -21.2047 N   0  0  0  0  0  0  0  0  0  0  0  0
   -6.5240   -0.9469  -20.1974 C   0  0  0  0  0  0  0  0  0  0  0  0
   -6.7685   -1.2541  -18.8874 C   0  0  0  0  0  0  0  0  0  0  0  0
   -5.8992   -1.0122  -17.8747 N   0  0  0  0  0  0  0  0  0  0  0  0
   -4.7696   -0.4209  -18.1742 C   0  0  0  0  0  0  0  0  0  0  0  0
   -4.4309    0.0181  -19.4851 C   0  0  0  0  0  0  0  0  0  0  0  0
   -3.2622    0.7734  -19.7452 C   0  0  0  0  0  0  0  0  0  0  0  0
   -3.0507    1.3087  -20.9871 C   0  0  0  0  0  0  0  0  0  0  0  0
   -3.9422    1.0305  -22.0512 C   0  0  0  0  0  0  0  0  0  0  0  0
   -5.0510    0.2487  -21.8355 C   0  0  0  0  0  0  0  0  0  0  0  0
   -5.3280   -0.2531  -20.5383 C   0  0  0  0  0  0  0  0  0  0  0  0
   -5.7215    0.0220  -22.6590 H   0  0  0  0  0  0  0  0  0  0  0  0
   -3.7819    1.4753  -23.0268 H   0  0  0  0  0  0  0  0  0  0  0  0
   -2.1961    1.9554  -21.1602 H   0  0  0  0  0  0  0  0  0  0  0  0
   -2.5994    0.9651  -18.9080 H   0  0  0  0  0  0  0  0  0  0  0  0
   -4.0505   -0.2423  -17.3727 H   0  0  0  0  0  0  0  0  0  0  0  0
   -7.6988   -1.7621  -18.6391 H   0  0  0  0  0  0  0  0  0  0  0  0
   -7.0455   -2.5834  -21.9708 C   0  0  0  0  0  0  0  0  0  0  0  0
   -8.3326   -2.8940  -22.7388 C   0  0  2  0  0  0  0  0  0  0  0  0
   -8.0516   -3.6768  -24.0309 C   0  0  0  0  0  0  0  0  0  0  0  0
   -7.4875   -5.0564  -23.7639 C   0  0  0  0  0  0  0  0  0  0  0  0
   -6.1095   -5.2981  -23.7593 C   0  0  0  0  0  0  0  0  0  0  0  0
   -5.6072   -6.5676  -23.4841 C   0  0  0  0  0  0  0  0  0  0  0  0
   -6.4766   -7.6164  -23.2020 C   0  0  0  0  0  0  0  0  0  0  0  0
   -7.8495   -7.3918  -23.2072 C   0  0  0  0  0  0  0  0  0  0  0  0
   -8.3471   -6.1224  -23.4849 C   0  0  0  0  0  0  0  0  0  0  0  0
   -9.4237   -5.9568  -23.4924 H   0  0  0  0  0  0  0  0  0  0  0  0
   -8.5362   -8.2096  -23.0040 H   0  0  0  0  0  0  0  0  0  0  0  0
   -6.0847   -8.6061  -22.9827 H   0  0  0  0  0  0  0  0  0  0  0  0
   -4.5342   -6.7447  -23.4968 H   0  0  0  0  0  0  0  0  0  0  0  0
   -5.4136   -4.4876  -23.9752 H   0  0  0  0  0  0  0  0  0  0  0  0
   -8.9797   -3.7634  -24.6101 H   0  0  0  0  0  0  0  0  0  0  0  0
   -7.3414   -3.1043  -24.6413 H   0  0  0  0  0  0  0  0  0  0  0  0
   -8.9397   -3.5355  -22.0959 H   0  0  0  0  0  0  0  0  0  0  0  0
   -6.7658   -3.3936  -21.2907 H   0  0  0  0  0  0  0  0  0  0  0  0
   -6.1936   -2.4085  -22.6526 H   0  0  0  0  0  0  0  0  0  0  0  0
  -10.5950   -1.6048  -22.7892 C   0  0  0  0  0  0  0  0  0  0  0  0
  -11.2222   -2.5384  -21.9592 C   0  0  0  0  0  0  0  0  0  0  0  0
  -12.5997   -2.5649  -21.8575 C   0  0  0  0  0  0  0  0  0  0  0  0
  -13.3343   -3.7021  -20.7721 Cl  0  0  0  0  0  0  0  0  0  0  0  0
  -13.4120   -1.6897  -22.5747 C   0  0  0  0  0  0  0  0  0  0  0  0
  -12.7975   -0.7459  -23.3699 C   0  0  0  0  0  0  0  0  0  0  0  0
  -11.4077   -0.6783  -23.4546 C   0  0  0  0  0  0  0  0  0  0  0  0
  -10.8156    0.4613  -24.2257 C   0  0  0  0  0  0  0  0  0  0  0  0
  -11.5075    1.3481  -24.7098 O   0  0  0  0  0  0  0  0  0  0  0  0
  -13.3739   -0.0178  -23.9252 H   0  0  0  0  0  0  0  0  0  0  0  0
  -14.4924   -1.7359  -22.4829 H   0  0  0  0  0  0  0  0  0  0  0  0
  -10.6533   -3.2422  -21.3633 H   0  0  0  0  0  0  0  0  0  0  0  0
   -7.6260   -0.5499  -24.1649 H   0  0  0  0  0  0  0  0  0  0  0  0
   -8.8991   -1.4443  -25.0089 H   0  0  0  0  0  0  0  0  0  0  0  0
   -8.2354    1.3007  -25.8101 H   0  0  0  0  0  0  0  0  0  0  0  0
   -9.5549    2.3259  -25.2025 H   0  0  0  0  0  0  0  0  0  0  0  0
   -9.2498    2.7247  -22.5595 H   0  0  0  0  0  0  0  0  0  0  0  0
   -7.9009    3.8375  -21.0462 H   0  0  0  0  0  0  0  0  0  0  0  0
   -6.6834    4.1078  -22.2876 H   0  0  0  0  0  0  0  0  0  0  0  0
   -6.7562    2.5070  -21.4919 H   0  0  0  0  0  0  0  0  0  0  0  0
  1  2  1  0
  2  3  1  0
  3  4  2  0
  3  5  1  0
  5  6  1  0
  6  7  1  0
  8  7  1  6
  8  9  1  0
  9 10  2  0
  9 11  1  0
 11 12  1  0
 12 13  2  0
 13 14  1  0
 14 15  2  0
 15 16  1  0
 16 17  2  0
 17 18  1  0
 18 19  2  0
 19 20  1  0
 20 21  2  0
 20 22  1  0
 19 23  1  0
 18 24  1  0
 17 25  1  0
 15 26  1  0
 13 27  1  0
 11 28  1  0
 28 29  1  0
 29 30  1  0
 30 31  1  0
 31 32  2  0
 32 33  1  0
 33 34  2  0
 34 35  1  0
 35 36  2  0
 36 37  1  0
 35 38  1  0
 34 39  1  0
 33 40  1  0
 32 41  1  0
 30 42  1  0
 30 43  1  0
 29 44  1  1
 28 45  1  0
 28 46  1  0
  8 47  1  0
 47 48  2  0
 48 49  1  0
 49 50  1  0
 49 51  2  0
 51 52  1  0
 52 53  2  0
 53 54  1  0
 54 55  2  0
 52 56  1  0
 51 57  1  0
 48 58  1  0
  7 59  1  0
  7 60  1  0
  5 61  1  0
  5 62  1  0
  2 63  1  0
  1 64  1  0
  1 65  1  0
  1 66  1  0
 54  6  1  0
 29  8  1  0
 36 31  1  0
 53 47  1  0
 21 12  1  0
 21 16  1  0
M  END
>  <cnnaffinities>  (43) 
[7.15811, 7.16422]

>  <score>  (43) 
7.15811

>  <index>  (43) 
45

>  <Smiles>  (43) 
C(N(C(=O)C(N1C([C@@]2(C(=O)N(c3c(nc(c4c(c(c(c(c34)[H])[H])[H])[H])[H])[H])C([C@@]2(C(c2c(c(c(c(c2[H])[H])[H])[H])[H])([H])[H])[H])([H])[H])c2c(c(Cl)c(c(c2C1=O)[H])[H])[H])([H])[H])([H])[H])[H])([H])([H])[H]

>  <h>  (43) 
<NA>

>  <Training>  (43) 
True

>  <Success>  (43) 
True

>  <enamine_searched>  (43) 
False

>  <enamine_id>  (43) 
nan

$$$$

     RDKit          3D

 50 54  0  0  0  0  0  0  0  0999 V2000
  -10.1872   -2.9505  -22.0754 C   0  0  0  0  0  0  0  0  0  0  0  0
   -9.1437   -1.9901  -22.6554 C   0  0  1  0  0  0  0  0  0  0  0  0
   -8.6398   -1.0117  -21.5676 C   0  0  0  0  0  0  0  0  0  0  0  0
   -7.3268   -1.5038  -21.2344 N   0  0  0  0  0  0  0  0  0  0  0  0
   -6.4845   -1.0240  -20.2111 C   0  0  0  0  0  0  0  0  0  0  0  0
   -6.7257   -1.3307  -18.8975 C   0  0  0  0  0  0  0  0  0  0  0  0
   -5.8439   -1.1043  -17.8963 N   0  0  0  0  0  0  0  0  0  0  0  0
   -4.7141   -0.5165  -18.2087 C   0  0  0  0  0  0  0  0  0  0  0  0
   -4.3942   -0.0526  -19.5139 C   0  0  0  0  0  0  0  0  0  0  0  0
   -3.2023    0.6674  -19.7765 C   0  0  0  0  0  0  0  0  0  0  0  0
   -2.9857    1.2238  -21.0049 C   0  0  0  0  0  0  0  0  0  0  0  0
   -3.9183    1.0227  -22.0504 C   0  0  0  0  0  0  0  0  0  0  0  0
   -5.0355    0.2497  -21.8516 C   0  0  0  0  0  0  0  0  0  0  0  0
   -5.3136   -0.2832  -20.5557 C   0  0  0  0  0  0  0  0  0  0  0  0
   -5.7108    0.0307  -22.6800 H   0  0  0  0  0  0  0  0  0  0  0  0
   -3.7456    1.4880  -23.0172 H   0  0  0  0  0  0  0  0  0  0  0  0
   -2.1061    1.8384  -21.1780 H   0  0  0  0  0  0  0  0  0  0  0  0
   -2.5139    0.8242  -18.9490 H   0  0  0  0  0  0  0  0  0  0  0  0
   -3.9866   -0.3733  -17.4090 H   0  0  0  0  0  0  0  0  0  0  0  0
   -7.6531   -1.8270  -18.6148 H   0  0  0  0  0  0  0  0  0  0  0  0
   -6.8493   -2.4815  -22.0669 C   0  0  0  0  0  0  0  0  0  0  0  0
   -5.7966   -3.0627  -21.8916 O   0  0  0  0  0  0  0  0  0  0  0  0
   -7.8586   -2.6831  -23.2063 C   0  0  1  0  0  0  0  0  0  0  0  0
   -8.0210   -4.2017  -23.4478 C   0  0  0  0  0  0  0  0  0  0  0  0
   -6.8151   -4.7603  -24.0353 N   0  0  0  0  0  0  0  0  0  0  0  0
   -6.2765   -6.0117  -23.5376 C   0  0  0  0  0  0  0  0  0  0  0  0
   -6.7247   -7.4635  -24.0538 C   0  0  0  0  0  0  0  0  0  0  0  0
   -6.6973   -7.3656  -24.1399 N   0  0  0  0  0  0  0  0  0  0  0  0
   -6.5077   -6.1275  -22.4785 H   0  0  0  0  0  0  0  0  0  0  0  0
   -5.2011   -5.9865  -23.6554 H   0  0  0  0  0  0  0  0  0  0  0  0
   -6.2157   -4.1886  -25.1364 C   0  0  0  0  0  0  0  0  0  0  0  0
   -5.3995   -4.7955  -25.8106 O   0  0  0  0  0  0  0  0  0  0  0  0
   -6.5911   -2.7625  -25.4083 C   0  0  0  0  0  0  0  0  0  0  0  0
   -6.1241   -2.1808  -26.5880 C   0  0  0  0  0  0  0  0  0  0  0  0
   -6.3789   -0.8535  -26.8693 C   0  0  0  0  0  0  0  0  0  0  0  0
   -7.0794   -0.1119  -25.9250 C   0  0  0  0  0  0  0  0  0  0  0  0
   -7.3189    1.1865  -26.1831 F   0  0  0  0  0  0  0  0  0  0  0  0
   -7.5438   -0.6584  -24.7419 C   0  0  0  0  0  0  0  0  0  0  0  0
   -7.3315   -2.0221  -24.4802 C   0  0  0  0  0  0  0  0  0  0  0  0
   -8.0889   -0.0068  -24.0632 H   0  0  0  0  0  0  0  0  0  0  0  0
   -6.0544   -0.3846  -27.7927 H   0  0  0  0  0  0  0  0  0  0  0  0
   -5.5740   -2.8054  -27.2849 H   0  0  0  0  0  0  0  0  0  0  0  0
   -8.8994   -4.3654  -24.0932 H   0  0  0  0  0  0  0  0  0  0  0  0
   -8.1885   -4.7019  -22.4879 H   0  0  0  0  0  0  0  0  0  0  0  0
   -9.2823   -1.0330  -20.6901 H   0  0  0  0  0  0  0  0  0  0  0  0
   -8.6045    0.0283  -21.9186 H   0  0  0  0  0  0  0  0  0  0  0  0
   -9.6326   -1.4450  -23.4702 H   0  0  0  0  0  0  0  0  0  0  0  0
  -10.5527   -3.6457  -22.8356 H   0  0  0  0  0  0  0  0  0  0  0  0
   -9.7722   -3.5359  -21.2482 H   0  0  0  0  0  0  0  0  0  0  0  0
  -11.0498   -2.3948  -21.6944 H   0  0  0  0  0  0  0  0  0  0  0  0
  1  2  1  0
  2  3  1  0
  3  4  1  0
  4  5  1  0
  5  6  2  0
  6  7  1  0
  7  8  2  0
  8  9  1  0
  9 10  2  0
 10 11  1  0
 11 12  2  0
 12 13  1  0
 13 14  2  0
 13 15  1  0
 12 16  1  0
 11 17  1  0
 10 18  1  0
  8 19  1  0
  6 20  1  0
  4 21  1  0
 21 22  2  0
 21 23  1  0
 23 24  1  6
 24 25  1  0
 25 26  1  0
 26 27  1  0
 27 28  3  0
 26 29  1  0
 26 30  1  0
 25 31  1  0
 31 32  2  0
 31 33  1  0
 33 34  2  0
 34 35  1  0
 35 36  2  0
 36 37  1  0
 36 38  1  0
 38 39  2  0
 38 40  1  0
 35 41  1  0
 34 42  1  0
 24 43  1  0
 24 44  1  0
  3 45  1  0
  3 46  1  0
  2 47  1  6
  1 48  1  0
  1 49  1  0
  1 50  1  0
 23  2  1  0
 39 33  1  0
 14  5  1  0
 39 23  1  0
 14  9  1  0
M  END
>  <cnnaffinities>  (44) 
[6.24346]

>  <score>  (44) 
6.24346

>  <index>  (44) 
46

>  <Smiles>  (44) 
C([C@]1(C(N(c2c(nc(c3c(c(c(c(c23)[H])[H])[H])[H])[H])[H])C(=O)[C@]21C(N(C(C#N)([H])[H])C(=O)c1c(c(c(F)c(c21)[H])[H])[H])([H])[H])([H])[H])[H])([H])([H])[H]

>  <h>  (44) 
<NA>

>  <Training>  (44) 
True

>  <Success>  (44) 
True

>  <enamine_searched>  (44) 
False

>  <enamine_id>  (44) 
nan

$$$$

     RDKit          3D

 58 63  0  0  0  0  0  0  0  0999 V2000
   -8.5742    0.7324  -21.3607 O   0  0  0  0  0  0  0  0  0  0  0  0
   -8.4833   -0.3887  -21.8308 C   0  0  0  0  0  0  0  0  0  0  0  0
   -7.4817   -1.4306  -21.3010 C   0  0  0  0  0  0  0  0  0  0  0  0
   -6.5099   -0.9937  -20.2345 C   0  0  0  0  0  0  0  0  0  0  0  0
   -6.7552   -1.2624  -18.9163 C   0  0  0  0  0  0  0  0  0  0  0  0
   -5.9284   -0.9833  -17.8767 N   0  0  0  0  0  0  0  0  0  0  0  0
   -4.8103   -0.3617  -18.1591 C   0  0  0  0  0  0  0  0  0  0  0  0
   -4.4485    0.0442  -19.4719 C   0  0  0  0  0  0  0  0  0  0  0  0
   -3.2889    0.8208  -19.7204 C   0  0  0  0  0  0  0  0  0  0  0  0
   -3.0645    1.3547  -20.9608 C   0  0  0  0  0  0  0  0  0  0  0  0
   -3.9241    1.0242  -22.0356 C   0  0  0  0  0  0  0  0  0  0  0  0
   -5.0059    0.2057  -21.8393 C   0  0  0  0  0  0  0  0  0  0  0  0
   -5.3181   -0.2767  -20.5428 C   0  0  0  0  0  0  0  0  0  0  0  0
   -5.7020    0.0174  -22.6577 H   0  0  0  0  0  0  0  0  0  0  0  0
   -3.7444    1.4538  -23.0159 H   0  0  0  0  0  0  0  0  0  0  0  0
   -2.2511    2.0539  -21.1241 H   0  0  0  0  0  0  0  0  0  0  0  0
   -2.6271    1.0472  -18.8873 H   0  0  0  0  0  0  0  0  0  0  0  0
   -4.1467   -0.1177  -17.3277 H   0  0  0  0  0  0  0  0  0  0  0  0
   -7.7041   -1.7162  -18.6322 H   0  0  0  0  0  0  0  0  0  0  0  0
   -6.9353   -1.8302  -22.1636 H   0  0  0  0  0  0  0  0  0  0  0  0
   -8.0842   -2.2498  -20.8856 H   0  0  0  0  0  0  0  0  0  0  0  0
   -9.3059   -0.8108  -22.8728 N   0  0  0  0  0  0  0  0  0  0  0  0
   -9.2642   -2.1247  -23.5138 C   0  0  0  0  0  0  0  0  0  0  0  0
   -8.5215   -2.1645  -24.8425 C   0  0  0  0  0  0  0  0  0  0  0  0
   -7.4243   -1.3396  -25.0958 C   0  0  0  0  0  0  0  0  0  0  0  0
   -6.7604   -1.4004  -26.3170 C   0  0  0  0  0  0  0  0  0  0  0  0
   -7.1781   -2.2796  -27.3103 C   0  0  0  0  0  0  0  0  0  0  0  0
   -8.2726   -3.0970  -27.0576 C   0  0  0  0  0  0  0  0  0  0  0  0
   -8.8197   -4.1992  -28.2958 Cl  0  0  0  0  0  0  0  0  0  0  0  0
   -8.9401   -3.0515  -25.8379 C   0  0  0  0  0  0  0  0  0  0  0  0
   -9.7989   -3.7016  -25.6806 H   0  0  0  0  0  0  0  0  0  0  0  0
   -6.6657   -2.3421  -28.2647 H   0  0  0  0  0  0  0  0  0  0  0  0
   -5.9070   -0.7514  -26.4955 H   0  0  0  0  0  0  0  0  0  0  0  0
   -7.0761   -0.6291  -24.3469 H   0  0  0  0  0  0  0  0  0  0  0  0
  -10.2895   -2.4713  -23.6790 H   0  0  0  0  0  0  0  0  0  0  0  0
   -8.8349   -2.8469  -22.8163 H   0  0  0  0  0  0  0  0  0  0  0  0
  -10.2296    0.1664  -23.4082 C   0  0  2  0  0  0  0  0  0  0  0  0
  -11.3609    0.6551  -22.4946 C   0  0  0  0  0  0  0  0  0  0  0  0
  -12.0607    1.6091  -23.4344 N   0  0  1  0  0  4  0  0  0  0  0  0
  -12.2631    2.9665  -22.9149 C   0  0  0  0  0  0  0  0  0  0  0  0
  -13.5542    3.3021  -22.2461 C   0  0  0  0  0  0  0  0  0  0  0  0
  -13.2374    3.8698  -23.5992 C   0  0  0  0  0  0  0  0  0  0  0  0
  -13.0031    4.9215  -23.6965 H   0  0  0  0  0  0  0  0  0  0  0  0
  -13.7813    3.4328  -24.4297 H   0  0  0  0  0  0  0  0  0  0  0  0
  -13.5200    3.9281  -21.3654 H   0  0  0  0  0  0  0  0  0  0  0  0
  -14.3058    2.5224  -22.2284 H   0  0  0  0  0  0  0  0  0  0  0  0
  -11.3707    3.4301  -22.5126 H   0  0  0  0  0  0  0  0  0  0  0  0
  -11.1379    1.5009  -24.6372 C   0  0  2  0  0  0  0  0  0  0  0  0
  -11.0028   -0.0265  -24.7350 C   0  0  0  0  0  0  0  0  0  0  0  0
  -10.3688   -0.3736  -25.5449 H   0  0  0  0  0  0  0  0  0  0  0  0
  -11.9376   -0.5992  -24.6788 H   0  0  0  0  0  0  0  0  0  0  0  0
   -9.7428    1.5162  -23.9922 C   0  0  0  0  0  0  0  0  0  0  0  0
   -8.9306    1.3890  -24.7034 H   0  0  0  0  0  0  0  0  0  0  0  0
   -9.5050    2.2877  -23.2547 H   0  0  0  0  0  0  0  0  0  0  0  0
  -11.4172    2.1501  -25.4593 H   0  0  0  0  0  0  0  0  0  0  0  0
  -12.9963    1.2260  -23.6769 H   0  0  0  0  0  0  0  0  0  0  0  0
  -10.9789    1.2040  -21.6398 H   0  0  0  0  0  0  0  0  0  0  0  0
  -12.0423   -0.1291  -22.1653 H   0  0  0  0  0  0  0  0  0  0  0  0
  1  2  2  0
  2  3  1  0
  3  4  1  0
  4  5  2  0
  5  6  1  0
  6  7  2  0
  7  8  1  0
  8  9  2  0
  9 10  1  0
 10 11  2  0
 11 12  1  0
 12 13  2  0
 12 14  1  0
 11 15  1  0
 10 16  1  0
  9 17  1  0
  7 18  1  0
  5 19  1  0
  3 20  1  0
  3 21  1  0
  2 22  1  0
 22 23  1  0
 23 24  1  0
 24 25  2  0
 25 26  1  0
 26 27  2  0
 27 28  1  0
 28 29  1  0
 28 30  2  0
 30 31  1  0
 27 32  1  0
 26 33  1  0
 25 34  1  0
 23 35  1  0
 23 36  1  0
 37 22  1  1
 37 38  1  0
 38 39  1  0
 39 40  1  0
 40 41  1  0
 41 42  1  0
 42 43  1  0
 42 44  1  0
 41 45  1  0
 41 46  1  0
 40 47  1  0
 39 48  1  0
 48 49  1  0
 49 50  1  0
 49 51  1  0
 48 52  1  0
 52 53  1  0
 52 54  1  0
 48 55  1  6
 39 56  1  6
 38 57  1  0
 38 58  1  0
 13  4  1  0
 30 24  1  0
 49 37  1  0
 13  8  1  0
 52 37  1  0
 42 40  1  0
M  CHG  1  39   1
M  END
>  <cnnaffinities>  (45) 
[6.24165, 6.44764, 6.38857, 6.07172]

>  <score>  (45) 
6.24165

>  <index>  (45) 
47

>  <Smiles>  (45) 
O=C(C(c1c(nc(c2c(c(c(c(c12)[H])[H])[H])[H])[H])[H])([H])[H])N(C(c1c(c(c(c(Cl)c1[H])[H])[H])[H])([H])[H])[C@]12C([N@@+](C3(C(C3([H])[H])([H])[H])[H])([C@](C1([H])[H])(C2([H])[H])[H])[H])([H])[H]

>  <h>  (45) 
<NA>

>  <Training>  (45) 
True

>  <Success>  (45) 
True

>  <enamine_searched>  (45) 
False

>  <enamine_id>  (45) 
nan

$$$$

     RDKit          3D

 46 48  0  0  0  0  0  0  0  0999 V2000
   -8.4920   -6.7355  -25.9276 C   0  0  0  0  0  0  0  0  0  0  0  0
   -9.5820   -6.6935  -24.8571 C   0  0  0  0  0  0  0  0  0  0  0  0
  -10.9572   -6.5355  -25.5110 C   0  0  0  0  0  0  0  0  0  0  0  0
  -11.7663   -6.5219  -24.7745 H   0  0  0  0  0  0  0  0  0  0  0  0
  -11.1581   -7.3543  -26.2107 H   0  0  0  0  0  0  0  0  0  0  0  0
  -11.0163   -5.6029  -26.0833 H   0  0  0  0  0  0  0  0  0  0  0  0
   -9.3473   -5.6360  -23.7491 C   0  0  0  0  0  0  0  0  0  0  0  0
   -9.2535   -4.1945  -24.2663 C   0  0  0  0  0  0  0  0  0  0  0  0
   -8.8494   -3.2330  -23.1538 C   0  0  0  0  0  0  0  0  0  0  0  0
   -7.5739   -3.6328  -22.5686 N   0  0  0  0  0  0  0  0  0  0  0  0
   -6.7760   -2.8072  -21.8411 C   0  0  0  0  0  0  0  0  0  0  0  0
   -5.6140   -3.0953  -21.5858 O   0  0  0  0  0  0  0  0  0  0  0  0
   -7.3969   -1.5189  -21.2948 C   0  0  0  0  0  0  0  0  0  0  0  0
   -6.4960   -0.9984  -20.2177 C   0  0  0  0  0  0  0  0  0  0  0  0
   -6.7518   -1.2769  -18.9025 C   0  0  0  0  0  0  0  0  0  0  0  0
   -5.9261   -0.9982  -17.8644 N   0  0  0  0  0  0  0  0  0  0  0  0
   -4.8143   -0.3631  -18.1460 C   0  0  0  0  0  0  0  0  0  0  0  0
   -4.4340    0.0289  -19.4595 C   0  0  0  0  0  0  0  0  0  0  0  0
   -3.2845    0.8227  -19.7086 C   0  0  0  0  0  0  0  0  0  0  0  0
   -3.0488    1.3343  -20.9583 C   0  0  0  0  0  0  0  0  0  0  0  0
   -3.8886    0.9748  -22.0370 C   0  0  0  0  0  0  0  0  0  0  0  0
   -4.9638    0.1474  -21.8398 C   0  0  0  0  0  0  0  0  0  0  0  0
   -5.2987   -0.2993  -20.5320 C   0  0  0  0  0  0  0  0  0  0  0  0
   -5.6293   -0.0820  -22.6668 H   0  0  0  0  0  0  0  0  0  0  0  0
   -3.6995    1.3836  -23.0268 H   0  0  0  0  0  0  0  0  0  0  0  0
   -2.2653    2.0689  -21.1142 H   0  0  0  0  0  0  0  0  0  0  0  0
   -2.6437    1.0824  -18.8696 H   0  0  0  0  0  0  0  0  0  0  0  0
   -4.1801   -0.0983  -17.3003 H   0  0  0  0  0  0  0  0  0  0  0  0
   -7.7088   -1.7167  -18.6262 H   0  0  0  0  0  0  0  0  0  0  0  0
   -8.3860   -1.7478  -20.8821 H   0  0  0  0  0  0  0  0  0  0  0  0
   -7.5635   -0.7952  -22.1055 H   0  0  0  0  0  0  0  0  0  0  0  0
   -7.0350   -4.9419  -22.8975 C   0  0  0  0  0  0  0  0  0  0  0  0
   -8.1408   -5.9873  -22.8422 C   0  0  0  0  0  0  0  0  0  0  0  0
   -7.7244   -6.9663  -23.1079 H   0  0  0  0  0  0  0  0  0  0  0  0
   -8.4786   -6.0640  -21.8013 H   0  0  0  0  0  0  0  0  0  0  0  0
   -6.2425   -5.1458  -22.1752 H   0  0  0  0  0  0  0  0  0  0  0  0
   -6.5644   -4.9040  -23.8897 H   0  0  0  0  0  0  0  0  0  0  0  0
   -8.7609   -2.2172  -23.5617 H   0  0  0  0  0  0  0  0  0  0  0  0
   -9.6344   -3.2081  -22.3823 H   0  0  0  0  0  0  0  0  0  0  0  0
  -10.2283   -3.8760  -24.6521 H   0  0  0  0  0  0  0  0  0  0  0  0
   -8.5288   -4.1192  -25.0853 H   0  0  0  0  0  0  0  0  0  0  0  0
  -10.2400   -5.6293  -23.1121 H   0  0  0  0  0  0  0  0  0  0  0  0
   -9.5432   -7.6740  -24.3637 H   0  0  0  0  0  0  0  0  0  0  0  0
   -7.4895   -6.8278  -25.4957 H   0  0  0  0  0  0  0  0  0  0  0  0
   -8.5069   -5.8436  -26.5633 H   0  0  0  0  0  0  0  0  0  0  0  0
   -8.6455   -7.6012  -26.5816 H   0  0  0  0  0  0  0  0  0  0  0  0
  1  2  1  0
  2  3  1  0
  3  4  1  0
  3  5  1  0
  3  6  1  0
  2  7  1  0
  7  8  1  0
  8  9  1  0
  9 10  1  0
 10 11  1  0
 11 12  2  0
 11 13  1  0
 13 14  1  0
 14 15  2  0
 15 16  1  0
 16 17  2  0
 17 18  1  0
 18 19  2  0
 19 20  1  0
 20 21  2  0
 21 22  1  0
 22 23  2  0
 22 24  1  0
 21 25  1  0
 20 26  1  0
 19 27  1  0
 17 28  1  0
 15 29  1  0
 13 30  1  0
 13 31  1  0
 10 32  1  0
 32 33  1  0
 33 34  1  0
 33 35  1  0
 32 36  1  0
 32 37  1  0
  9 38  1  0
  9 39  1  0
  8 40  1  0
  8 41  1  0
  7 42  1  0
  2 43  1  0
  1 44  1  0
  1 45  1  0
  1 46  1  0
 33  7  1  0
 23 14  1  0
 23 18  1  0
M  END
>  <cnnaffinities>  (46) 
[5.50916, 5.51462, 5.51463, 5.51503, 5.46608, 4.93992, 4.94007, 4.9403, 5.0994, 5.09932]

>  <score>  (46) 
5.50916

>  <index>  (46) 
48

>  <Smiles>  (46) 
C(C(C([H])([H])[H])(C1(C(C(N(C(=O)C(c2c(nc(c3c(c(c(c(c23)[H])[H])[H])[H])[H])[H])([H])[H])C(C1([H])[H])([H])[H])([H])[H])([H])[H])[H])[H])([H])([H])[H]

>  <h>  (46) 
<NA>

>  <Training>  (46) 
True

>  <Success>  (46) 
True

>  <enamine_searched>  (46) 
False

>  <enamine_id>  (46) 
nan

$$$$

     RDKit          3D

 67 72  0  0  0  0  0  0  0  0999 V2000
   -7.3382    3.3642  -21.8681 C   0  0  0  0  0  0  0  0  0  0  0  0
   -8.2507    2.9155  -22.9105 N   0  0  0  0  0  0  0  0  0  0  0  0
   -7.7023    2.2030  -23.9381 C   0  0  0  0  0  0  0  0  0  0  0  0
   -6.4948    2.0417  -24.0555 O   0  0  0  0  0  0  0  0  0  0  0  0
   -8.6802    1.6028  -24.9467 C   0  0  0  0  0  0  0  0  0  0  0  0
   -9.3678    0.4623  -24.3712 N   0  0  0  0  0  0  0  0  0  0  0  0
   -8.6339   -0.7841  -24.2038 C   0  0  0  0  0  0  0  0  0  0  0  0
   -9.0390   -1.5182  -22.9008 C   0  0  2  0  0  0  0  0  0  0  0  0
   -8.4945   -0.7583  -21.6624 C   0  0  0  0  0  0  0  0  0  0  0  0
   -8.9378    0.2534  -21.1584 O   0  0  0  0  0  0  0  0  0  0  0  0
   -7.3793   -1.4271  -21.2188 N   0  0  0  0  0  0  0  0  0  0  0  0
   -6.5144   -0.9566  -20.2089 C   0  0  0  0  0  0  0  0  0  0  0  0
   -6.7693   -1.2590  -18.9010 C   0  0  0  0  0  0  0  0  0  0  0  0
   -5.9130   -1.0056  -17.8805 N   0  0  0  0  0  0  0  0  0  0  0  0
   -4.7833   -0.4103  -18.1732 C   0  0  0  0  0  0  0  0  0  0  0  0
   -4.4325    0.0242  -19.4844 C   0  0  0  0  0  0  0  0  0  0  0  0
   -3.2669    0.7861  -19.7419 C   0  0  0  0  0  0  0  0  0  0  0  0
   -3.0510    1.3185  -20.9846 C   0  0  0  0  0  0  0  0  0  0  0  0
   -3.9337    1.0303  -22.0515 C   0  0  0  0  0  0  0  0  0  0  0  0
   -5.0401    0.2471  -21.8403 C   0  0  0  0  0  0  0  0  0  0  0  0
   -5.3189   -0.2597  -20.5447 C   0  0  0  0  0  0  0  0  0  0  0  0
   -5.7130    0.0257  -22.6640 H   0  0  0  0  0  0  0  0  0  0  0  0
   -3.7737    1.4742  -23.0279 H   0  0  0  0  0  0  0  0  0  0  0  0
   -2.2051    1.9766  -21.1534 H   0  0  0  0  0  0  0  0  0  0  0  0
   -2.6063    0.9842  -18.9045 H   0  0  0  0  0  0  0  0  0  0  0  0
   -4.0806   -0.2144  -17.3606 H   0  0  0  0  0  0  0  0  0  0  0  0
   -7.7066   -1.7536  -18.6546 H   0  0  0  0  0  0  0  0  0  0  0  0
   -7.0368   -2.6067  -21.9638 C   0  0  0  0  0  0  0  0  0  0  0  0
   -8.3114   -2.8916  -22.7630 C   0  0  2  0  0  0  0  0  0  0  0  0
   -7.9841   -3.6736  -24.0389 C   0  0  0  0  0  0  0  0  0  0  0  0
   -7.4693   -4.9880  -23.7307 N   0  0  0  0  0  0  0  0  0  0  0  0
   -6.1386   -5.2940  -23.6354 C   0  0  0  0  0  0  0  0  0  0  0  0
   -5.0346   -4.5676  -23.9850 C   0  0  0  0  0  0  0  0  0  0  0  0
   -3.8144   -5.1709  -23.7779 N   0  0  0  0  0  0  0  0  0  0  0  0
   -3.9551   -6.3633  -23.2934 C   0  0  0  0  0  0  0  0  0  0  0  0
   -2.8184   -7.2812  -22.9850 C   0  0  0  0  0  0  0  0  0  0  0  0
   -3.0293   -7.9097  -22.1195 H   0  0  0  0  0  0  0  0  0  0  0  0
   -2.6220   -7.9461  -23.8324 H   0  0  0  0  0  0  0  0  0  0  0  0
   -1.9217   -6.6881  -22.8014 H   0  0  0  0  0  0  0  0  0  0  0  0
   -5.6144   -6.8541  -23.0344 S   0  0  0  0  0  0  0  0  0  0  0  0
   -5.0518   -3.5752  -24.4203 H   0  0  0  0  0  0  0  0  0  0  0  0
   -8.1255   -5.7202  -23.5133 H   0  0  0  0  0  0  0  0  0  0  0  0
   -8.8748   -3.7758  -24.6689 H   0  0  0  0  0  0  0  0  0  0  0  0
   -7.2240   -3.1328  -24.6145 H   0  0  0  0  0  0  0  0  0  0  0  0
   -8.9472   -3.5329  -22.1460 H   0  0  0  0  0  0  0  0  0  0  0  0
   -6.1589   -2.4568  -22.6191 H   0  0  0  0  0  0  0  0  0  0  0  0
   -6.7884   -3.4209  -21.2779 H   0  0  0  0  0  0  0  0  0  0  0  0
  -10.5527   -1.5702  -22.8452 C   0  0  0  0  0  0  0  0  0  0  0  0
  -11.1980   -2.4728  -21.9958 C   0  0  0  0  0  0  0  0  0  0  0  0
  -12.5773   -2.4887  -21.9172 C   0  0  0  0  0  0  0  0  0  0  0  0
  -13.3372   -3.6083  -20.8297 Cl  0  0  0  0  0  0  0  0  0  0  0  0
  -13.3715   -1.6202  -22.6642 C   0  0  0  0  0  0  0  0  0  0  0  0
  -12.7378   -0.6946  -23.4652 C   0  0  0  0  0  0  0  0  0  0  0  0
  -11.3475   -0.6445  -23.5332 C   0  0  0  0  0  0  0  0  0  0  0  0
  -10.7325    0.4813  -24.3019 C   0  0  0  0  0  0  0  0  0  0  0  0
  -11.4089    1.3735  -24.8031 O   0  0  0  0  0  0  0  0  0  0  0  0
  -13.2961    0.0342  -24.0383 H   0  0  0  0  0  0  0  0  0  0  0  0
  -14.4531   -1.6569  -22.5863 H   0  0  0  0  0  0  0  0  0  0  0  0
  -10.6388   -3.1563  -21.3674 H   0  0  0  0  0  0  0  0  0  0  0  0
   -7.5597   -0.5655  -24.2044 H   0  0  0  0  0  0  0  0  0  0  0  0
   -8.8411   -1.4461  -25.0554 H   0  0  0  0  0  0  0  0  0  0  0  0
   -9.4441    2.3248  -25.2564 H   0  0  0  0  0  0  0  0  0  0  0  0
   -8.1050    1.2959  -25.8272 H   0  0  0  0  0  0  0  0  0  0  0  0
   -9.2099    2.7337  -22.6335 H   0  0  0  0  0  0  0  0  0  0  0  0
   -6.7406    2.5159  -21.4960 H   0  0  0  0  0  0  0  0  0  0  0  0
   -6.6573    4.1218  -22.2683 H   0  0  0  0  0  0  0  0  0  0  0  0
   -7.9063    3.8226  -21.0562 H   0  0  0  0  0  0  0  0  0  0  0  0
  1  2  1  0
  2  3  1  0
  3  4  2  0
  3  5  1  0
  5  6  1  0
  6  7  1  0
  8  7  1  6
  8  9  1  0
  9 10  2  0
  9 11  1  0
 11 12  1  0
 12 13  2  0
 13 14  1  0
 14 15  2  0
 15 16  1  0
 16 17  2  0
 17 18  1  0
 18 19  2  0
 19 20  1  0
 20 21  2  0
 20 22  1  0
 19 23  1  0
 18 24  1  0
 17 25  1  0
 15 26  1  0
 13 27  1  0
 11 28  1  0
 28 29  1  0
 29 30  1  0
 30 31  1  0
 31 32  1  0
 32 33  2  0
 33 34  1  0
 34 35  2  0
 35 36  1  0
 36 37  1  0
 36 38  1  0
 36 39  1  0
 35 40  1  0
 33 41  1  0
 31 42  1  0
 30 43  1  0
 30 44  1  0
 29 45  1  1
 28 46  1  0
 28 47  1  0
  8 48  1  0
 48 49  2  0
 49 50  1  0
 50 51  1  0
 50 52  2  0
 52 53  1  0
 53 54  2  0
 54 55  1  0
 55 56  2  0
 53 57  1  0
 52 58  1  0
 49 59  1  0
  7 60  1  0
  7 61  1  0
  5 62  1  0
  5 63  1  0
  2 64  1  0
  1 65  1  0
  1 66  1  0
  1 67  1  0
 55  6  1  0
 29  8  1  0
 40 32  1  0
 54 48  1  0
 21 12  1  0
 21 16  1  0
M  END
>  <cnnaffinities>  (47) 
[7.34544, 7.15713]

>  <score>  (47) 
7.34544

>  <index>  (47) 
49

>  <Smiles>  (47) 
C(N(C(=O)C(N1C([C@@]2(C(=O)N(c3c(nc(c4c(c(c(c(c34)[H])[H])[H])[H])[H])[H])C([C@@]2(C(N(c2c(nc(C([H])([H])[H])s2)[H])[H])([H])[H])[H])([H])[H])c2c(c(Cl)c(c(c2C1=O)[H])[H])[H])([H])[H])([H])[H])[H])([H])([H])[H]

>  <h>  (47) 
<NA>

>  <Training>  (47) 
True

>  <Success>  (47) 
True

>  <enamine_searched>  (47) 
False

>  <enamine_id>  (47) 
nan

$$$$

     RDKit          3D

 66 70  0  0  0  0  0  0  0  0999 V2000
   -7.3617    3.3321  -21.9024 C   0  0  0  0  0  0  0  0  0  0  0  0
   -8.3189    2.8747  -22.8962 N   0  0  0  0  0  0  0  0  0  0  0  0
   -7.8412    2.1303  -23.9302 C   0  0  0  0  0  0  0  0  0  0  0  0
   -6.6467    1.9045  -24.0727 O   0  0  0  0  0  0  0  0  0  0  0  0
   -8.8720    1.5532  -24.8990 C   0  0  0  0  0  0  0  0  0  0  0  0
   -9.5313    0.4106  -24.2888 N   0  0  0  0  0  0  0  0  0  0  0  0
   -8.7848   -0.8324  -24.1426 C   0  0  0  0  0  0  0  0  0  0  0  0
   -9.1254   -1.5587  -22.8135 C   0  0  2  0  0  0  0  0  0  0  0  0
   -8.5338   -0.7730  -21.6111 C   0  0  0  0  0  0  0  0  0  0  0  0
   -8.9637    0.2429  -21.1073 O   0  0  0  0  0  0  0  0  0  0  0  0
   -7.3905   -1.4239  -21.2090 N   0  0  0  0  0  0  0  0  0  0  0  0
   -6.5300   -0.9513  -20.1942 C   0  0  0  0  0  0  0  0  0  0  0  0
   -6.7693   -1.2576  -18.8821 C   0  0  0  0  0  0  0  0  0  0  0  0
   -5.8897   -1.0237  -17.8781 N   0  0  0  0  0  0  0  0  0  0  0  0
   -4.7612   -0.4277  -18.1782 C   0  0  0  0  0  0  0  0  0  0  0  0
   -4.4273    0.0086  -19.4901 C   0  0  0  0  0  0  0  0  0  0  0  0
   -3.2524    0.7554  -19.7514 C   0  0  0  0  0  0  0  0  0  0  0  0
   -3.0372    1.2865  -20.9954 C   0  0  0  0  0  0  0  0  0  0  0  0
   -3.9447    1.0272  -22.0512 C   0  0  0  0  0  0  0  0  0  0  0  0
   -5.0521    0.2443  -21.8353 C   0  0  0  0  0  0  0  0  0  0  0  0
   -5.3397   -0.2461  -20.5344 C   0  0  0  0  0  0  0  0  0  0  0  0
   -5.7270    0.0229  -22.6549 H   0  0  0  0  0  0  0  0  0  0  0  0
   -3.7760    1.4590  -23.0330 H   0  0  0  0  0  0  0  0  0  0  0  0
   -2.1775    1.9223  -21.1707 H   0  0  0  0  0  0  0  0  0  0  0  0
   -2.5917    0.9575  -18.9118 H   0  0  0  0  0  0  0  0  0  0  0  0
   -4.0399   -0.2591  -17.3758 H   0  0  0  0  0  0  0  0  0  0  0  0
   -7.6956   -1.7685  -18.6237 H   0  0  0  0  0  0  0  0  0  0  0  0
   -7.0638   -2.6146  -21.9577 C   0  0  0  0  0  0  0  0  0  0  0  0
   -8.3694   -2.9188  -22.7041 C   0  0  2  0  0  0  0  0  0  0  0  0
   -8.1179   -3.6600  -24.0076 C   0  0  0  0  0  0  0  0  0  0  0  0
   -7.4813   -4.8854  -23.7156 O   0  0  0  0  0  0  0  0  0  0  0  0
   -7.3113   -5.7349  -24.8419 C   0  0  0  0  0  0  0  0  0  0  0  0
   -8.4476   -6.7469  -24.9123 C   0  0  0  0  0  0  0  0  0  0  0  0
   -8.4361   -7.3873  -24.0243 H   0  0  0  0  0  0  0  0  0  0  0  0
   -8.3302   -7.3725  -25.8030 H   0  0  0  0  0  0  0  0  0  0  0  0
   -9.4238   -6.2535  -24.9662 H   0  0  0  0  0  0  0  0  0  0  0  0
   -5.9589   -6.4232  -24.7284 C   0  0  0  0  0  0  0  0  0  0  0  0
   -5.9279   -7.0477  -23.8295 H   0  0  0  0  0  0  0  0  0  0  0  0
   -5.7940   -7.0595  -25.6059 H   0  0  0  0  0  0  0  0  0  0  0  0
   -5.1495   -5.6884  -24.6738 H   0  0  0  0  0  0  0  0  0  0  0  0
   -7.3172   -5.1252  -25.7588 H   0  0  0  0  0  0  0  0  0  0  0  0
   -9.0667   -3.8223  -24.5425 H   0  0  0  0  0  0  0  0  0  0  0  0
   -7.4613   -3.0630  -24.6613 H   0  0  0  0  0  0  0  0  0  0  0  0
   -8.9504   -3.5893  -22.0691 H   0  0  0  0  0  0  0  0  0  0  0  0
   -6.7829   -3.4190  -21.2727 H   0  0  0  0  0  0  0  0  0  0  0  0
   -6.2191   -2.4541  -22.6473 H   0  0  0  0  0  0  0  0  0  0  0  0
  -10.6374   -1.6382  -22.7047 C   0  0  0  0  0  0  0  0  0  0  0  0
  -11.2458   -2.5735  -21.8610 C   0  0  0  0  0  0  0  0  0  0  0  0
  -12.6164   -2.5761  -21.7104 C   0  0  0  0  0  0  0  0  0  0  0  0
  -13.1719   -3.4636  -20.8699 F   0  0  0  0  0  0  0  0  0  0  0  0
  -13.4483   -1.6855  -22.3774 C   0  0  0  0  0  0  0  0  0  0  0  0
  -12.8525   -0.7513  -23.1984 C   0  0  0  0  0  0  0  0  0  0  0  0
  -11.4660   -0.7024  -23.3441 C   0  0  0  0  0  0  0  0  0  0  0  0
  -10.8917    0.4260  -24.1483 C   0  0  0  0  0  0  0  0  0  0  0  0
  -11.5976    1.3090  -24.6209 O   0  0  0  0  0  0  0  0  0  0  0  0
  -13.4474   -0.0191  -23.7300 H   0  0  0  0  0  0  0  0  0  0  0  0
  -14.5207   -1.7211  -22.2225 H   0  0  0  0  0  0  0  0  0  0  0  0
  -10.6769   -3.2995  -21.2929 H   0  0  0  0  0  0  0  0  0  0  0  0
   -9.0262   -1.5027  -24.9807 H   0  0  0  0  0  0  0  0  0  0  0  0
   -7.7124   -0.6095  -24.1852 H   0  0  0  0  0  0  0  0  0  0  0  0
   -8.3617    1.2493  -25.8211 H   0  0  0  0  0  0  0  0  0  0  0  0
   -9.6425    2.2828  -25.1632 H   0  0  0  0  0  0  0  0  0  0  0  0
   -9.2752    2.7415  -22.5952 H   0  0  0  0  0  0  0  0  0  0  0  0
   -7.8920    3.8395  -21.0963 H   0  0  0  0  0  0  0  0  0  0  0  0
   -6.7813    2.4826  -21.5140 H   0  0  0  0  0  0  0  0  0  0  0  0
   -6.6732    4.0511  -22.3536 H   0  0  0  0  0  0  0  0  0  0  0  0
  1  2  1  0
  2  3  1  0
  3  4  2  0
  3  5  1  0
  5  6  1  0
  6  7  1  0
  8  7  1  6
  8  9  1  0
  9 10  2  0
  9 11  1  0
 11 12  1  0
 12 13  2  0
 13 14  1  0
 14 15  2  0
 15 16  1  0
 16 17  2  0
 17 18  1  0
 18 19  2  0
 19 20  1  0
 20 21  2  0
 20 22  1  0
 19 23  1  0
 18 24  1  0
 17 25  1  0
 15 26  1  0
 13 27  1  0
 11 28  1  0
 28 29  1  0
 29 30  1  0
 30 31  1  0
 31 32  1  0
 32 33  1  0
 33 34  1  0
 33 35  1  0
 33 36  1  0
 32 37  1  0
 37 38  1  0
 37 39  1  0
 37 40  1  0
 32 41  1  0
 30 42  1  0
 30 43  1  0
 29 44  1  1
 28 45  1  0
 28 46  1  0
  8 47  1  0
 47 48  2  0
 48 49  1  0
 49 50  1  0
 49 51  2  0
 51 52  1  0
 52 53  2  0
 53 54  1  0
 54 55  2  0
 52 56  1  0
 51 57  1  0
 48 58  1  0
  7 59  1  0
  7 60  1  0
  5 61  1  0
  5 62  1  0
  2 63  1  0
  1 64  1  0
  1 65  1  0
  1 66  1  0
 54  6  1  0
 29  8  1  0
 53 47  1  0
 21 12  1  0
 21 16  1  0
M  END
>  <cnnaffinities>  (48) 
[6.89919, 6.74995, 6.69925, 6.96441, 6.82885, 6.87037]

>  <score>  (48) 
6.89919

>  <index>  (48) 
50

>  <Smiles>  (48) 
C(N(C(=O)C(N1C([C@@]2(C(=O)N(c3c(nc(c4c(c(c(c(c34)[H])[H])[H])[H])[H])[H])C([C@@]2(C(OC(C([H])([H])[H])(C([H])([H])[H])[H])([H])[H])[H])([H])[H])c2c(c(F)c(c(c2C1=O)[H])[H])[H])([H])[H])([H])[H])[H])([H])([H])[H]

>  <h>  (48) 
<NA>

>  <Training>  (48) 
True

>  <Success>  (48) 
True

>  <enamine_searched>  (48) 
False

>  <enamine_id>  (48) 
nan

$$$$

     RDKit          3D

 50 52  0  0  0  0  0  0  0  0999 V2000
  -11.5941   -0.2636  -25.0488 C   0  0  0  0  0  0  0  0  0  0  0  0
  -10.8001   -0.0011  -24.0149 C   0  0  0  0  0  0  0  0  0  0  0  0
  -10.6955   -0.9349  -22.8255 C   0  0  0  0  0  0  0  0  0  0  0  0
   -9.3394   -1.4141  -22.5718 N   0  0  0  0  0  0  0  0  0  0  0  0
   -8.6388   -0.8658  -21.5131 C   0  0  0  0  0  0  0  0  0  0  0  0
   -9.1175    0.0048  -20.7909 O   0  0  0  0  0  0  0  0  0  0  0  0
   -7.3768   -1.3645  -21.3332 N   0  0  0  0  0  0  0  0  0  0  0  0
   -6.5323   -0.9653  -20.2705 C   0  0  0  0  0  0  0  0  0  0  0  0
   -6.8139   -1.2524  -18.9605 C   0  0  0  0  0  0  0  0  0  0  0  0
   -5.9605   -1.0025  -17.9356 N   0  0  0  0  0  0  0  0  0  0  0  0
   -4.8301   -0.3959  -18.2012 C   0  0  0  0  0  0  0  0  0  0  0  0
   -4.4607    0.0323  -19.5066 C   0  0  0  0  0  0  0  0  0  0  0  0
   -3.2933    0.7957  -19.7563 C   0  0  0  0  0  0  0  0  0  0  0  0
   -3.0711    1.3255  -20.9999 C   0  0  0  0  0  0  0  0  0  0  0  0
   -3.9531    1.0488  -22.0695 C   0  0  0  0  0  0  0  0  0  0  0  0
   -5.0552    0.2564  -21.8664 C   0  0  0  0  0  0  0  0  0  0  0  0
   -5.3463   -0.2391  -20.5705 C   0  0  0  0  0  0  0  0  0  0  0  0
   -5.7170    0.0024  -22.6911 H   0  0  0  0  0  0  0  0  0  0  0  0
   -3.7684    1.4745  -23.0511 H   0  0  0  0  0  0  0  0  0  0  0  0
   -2.2309    1.9925  -21.1647 H   0  0  0  0  0  0  0  0  0  0  0  0
   -2.6516    1.0188  -18.9097 H   0  0  0  0  0  0  0  0  0  0  0  0
   -4.1483   -0.1911  -17.3713 H   0  0  0  0  0  0  0  0  0  0  0  0
   -7.7490   -1.7482  -18.7059 H   0  0  0  0  0  0  0  0  0  0  0  0
   -7.0189   -2.0100  -22.0226 H   0  0  0  0  0  0  0  0  0  0  0  0
   -8.7332   -2.1976  -23.6033 C   0  0  0  0  0  0  0  0  0  0  0  0
   -9.1696   -3.4970  -23.8551 C   0  0  0  0  0  0  0  0  0  0  0  0
   -8.5774   -4.2404  -24.8709 C   0  0  0  0  0  0  0  0  0  0  0  0
   -7.5765   -3.6970  -25.6685 C   0  0  0  0  0  0  0  0  0  0  0  0
   -7.1863   -2.3846  -25.4364 C   0  0  0  0  0  0  0  0  0  0  0  0
   -5.9612   -1.6649  -26.4454 Cl  0  0  0  0  0  0  0  0  0  0  0  0
   -7.7539   -1.6299  -24.4180 C   0  0  0  0  0  0  0  0  0  0  0  0
   -7.4477   -0.5968  -24.2712 H   0  0  0  0  0  0  0  0  0  0  0  0
   -7.1266   -4.2702  -26.4746 H   0  0  0  0  0  0  0  0  0  0  0  0
   -8.9141   -5.2560  -25.0557 H   0  0  0  0  0  0  0  0  0  0  0  0
   -9.9602   -3.9318  -23.2477 H   0  0  0  0  0  0  0  0  0  0  0  0
  -11.3183   -1.8179  -23.0031 H   0  0  0  0  0  0  0  0  0  0  0  0
  -11.0516   -0.4663  -21.9103 H   0  0  0  0  0  0  0  0  0  0  0  0
   -9.9031    1.1995  -24.1631 C   0  0  0  0  0  0  0  0  0  0  0  0
   -9.6532    1.6515  -25.2764 O   0  0  0  0  0  0  0  0  0  0  0  0
   -9.3702    1.7424  -23.0415 N   0  0  0  0  0  0  0  0  0  0  0  0
   -8.1394    2.4963  -23.2009 C   0  0  0  0  0  0  0  0  0  0  0  0
   -7.5013    2.7485  -21.8514 C   0  0  0  0  0  0  0  0  0  0  0  0
   -7.5350    1.8352  -21.2396 H   0  0  0  0  0  0  0  0  0  0  0  0
   -6.4539    3.0321  -21.9692 H   0  0  0  0  0  0  0  0  0  0  0  0
   -7.9876    3.5803  -21.3301 H   0  0  0  0  0  0  0  0  0  0  0  0
   -7.4591    1.9124  -23.8385 H   0  0  0  0  0  0  0  0  0  0  0  0
   -8.3398    3.4312  -23.7345 H   0  0  0  0  0  0  0  0  0  0  0  0
   -9.5296    1.3071  -22.1373 H   0  0  0  0  0  0  0  0  0  0  0  0
  -11.5736    0.3976  -25.9098 H   0  0  0  0  0  0  0  0  0  0  0  0
  -12.2522   -1.1298  -25.0584 H   0  0  0  0  0  0  0  0  0  0  0  0
  1  2  2  0
  2  3  1  0
  3  4  1  0
  4  5  1  0
  5  6  2  0
  5  7  1  0
  7  8  1  0
  8  9  2  0
  9 10  1  0
 10 11  2  0
 11 12  1  0
 12 13  2  0
 13 14  1  0
 14 15  2  0
 15 16  1  0
 16 17  2  0
 16 18  1  0
 15 19  1  0
 14 20  1  0
 13 21  1  0
 11 22  1  0
  9 23  1  0
  7 24  1  0
  4 25  1  0
 25 26  2  0
 26 27  1  0
 27 28  2  0
 28 29  1  0
 29 30  1  0
 29 31  2  0
 31 32  1  0
 28 33  1  0
 27 34  1  0
 26 35  1  0
  3 36  1  0
  3 37  1  0
  2 38  1  0
 38 39  2  0
 38 40  1  0
 40 41  1  0
 41 42  1  0
 42 43  1  0
 42 44  1  0
 42 45  1  0
 41 46  1  0
 41 47  1  0
 40 48  1  0
  1 49  1  0
  1 50  1  0
 17  8  1  0
 31 25  1  0
 17 12  1  0
M  END
>  <cnnaffinities>  (49) 
[6.17296, 6.27573, 6.17219, 6.05129]

>  <score>  (49) 
6.17296

>  <index>  (49) 
51

>  <Smiles>  (49) 
C(=C(C(N(C(=O)N(c1c(nc(c2c(c(c(c(c12)[H])[H])[H])[H])[H])[H])[H])c1c(c(c(c(Cl)c1[H])[H])[H])[H])([H])[H])C(=O)N(C(C([H])([H])[H])([H])[H])[H])([H])[H]

>  <h>  (49) 
<NA>

>  <Training>  (49) 
True

>  <Success>  (49) 
True

>  <enamine_searched>  (49) 
False

>  <enamine_id>  (49) 
nan

$$$$

     RDKit          3D

 57 60  0  0  0  0  0  0  0  0999 V2000
  -10.8569   -6.3873  -26.4183 C   0  0  0  0  0  0  0  0  0  0  0  0
  -10.5372   -6.2945  -24.9256 C   0  0  0  0  0  0  0  0  0  0  0  0
   -9.9319   -4.9891  -24.4425 C   0  0  0  0  0  0  0  0  0  0  0  0
  -10.3226   -4.4530  -23.4226 O   0  0  0  0  0  0  0  0  0  0  0  0
   -8.9161   -4.5241  -25.2425 N   0  0  0  0  0  0  0  0  0  0  0  0
   -8.2210   -3.3042  -25.1460 C   0  0  0  0  0  0  0  0  0  0  0  0
   -7.1933   -3.0449  -26.0633 C   0  0  0  0  0  0  0  0  0  0  0  0
   -6.5395   -1.8169  -26.0422 C   0  0  0  0  0  0  0  0  0  0  0  0
   -6.8936   -0.8502  -25.1037 C   0  0  0  0  0  0  0  0  0  0  0  0
   -7.9058   -1.1237  -24.1843 C   0  0  0  0  0  0  0  0  0  0  0  0
   -8.2982   -0.1210  -23.2379 N   0  0  0  0  0  0  0  0  0  0  0  0
   -8.9922    1.0679  -23.7545 C   0  0  0  0  0  0  0  0  0  0  0  0
  -10.4512    0.8091  -24.0771 C   0  0  0  0  0  0  0  0  0  0  0  0
  -10.8083    0.1747  -25.2671 C   0  0  0  0  0  0  0  0  0  0  0  0
  -12.1399   -0.1122  -25.5430 C   0  0  0  0  0  0  0  0  0  0  0  0
  -13.1339    0.2540  -24.6406 C   0  0  0  0  0  0  0  0  0  0  0  0
  -12.7873    0.8891  -23.4532 C   0  0  0  0  0  0  0  0  0  0  0  0
  -11.4514    1.1544  -23.1680 C   0  0  0  0  0  0  0  0  0  0  0  0
  -11.1768    1.6207  -22.2236 H   0  0  0  0  0  0  0  0  0  0  0  0
  -13.5586    1.1786  -22.7436 H   0  0  0  0  0  0  0  0  0  0  0  0
  -14.1762    0.0403  -24.8602 H   0  0  0  0  0  0  0  0  0  0  0  0
  -12.3917   -0.6371  -26.4593 H   0  0  0  0  0  0  0  0  0  0  0  0
  -10.0326   -0.1134  -25.9757 H   0  0  0  0  0  0  0  0  0  0  0  0
   -8.9000    1.8575  -23.0054 H   0  0  0  0  0  0  0  0  0  0  0  0
   -8.4598    1.3984  -24.6551 H   0  0  0  0  0  0  0  0  0  0  0  0
   -8.3149   -0.3353  -21.8688 C   0  0  0  0  0  0  0  0  0  0  0  0
   -8.9704    0.3634  -21.1185 O   0  0  0  0  0  0  0  0  0  0  0  0
   -7.4437   -1.4741  -21.3151 C   0  0  0  0  0  0  0  0  0  0  0  0
   -6.4857   -1.0266  -20.2397 C   0  0  0  0  0  0  0  0  0  0  0  0
   -6.7207   -1.3313  -18.9277 C   0  0  0  0  0  0  0  0  0  0  0  0
   -5.8693   -1.0737  -17.9021 N   0  0  0  0  0  0  0  0  0  0  0  0
   -4.7658   -0.4339  -18.1900 C   0  0  0  0  0  0  0  0  0  0  0  0
   -4.4143   -0.0015  -19.4962 C   0  0  0  0  0  0  0  0  0  0  0  0
   -3.2364    0.7475  -19.7472 C   0  0  0  0  0  0  0  0  0  0  0  0
   -2.9706    1.2374  -20.9925 C   0  0  0  0  0  0  0  0  0  0  0  0
   -3.8603    0.9715  -22.0594 C   0  0  0  0  0  0  0  0  0  0  0  0
   -4.9881    0.2106  -21.8561 C   0  0  0  0  0  0  0  0  0  0  0  0
   -5.3098   -0.2793  -20.5588 C   0  0  0  0  0  0  0  0  0  0  0  0
   -5.6483    0.0028  -22.6980 H   0  0  0  0  0  0  0  0  0  0  0  0
   -3.6595    1.3936  -23.0404 H   0  0  0  0  0  0  0  0  0  0  0  0
   -2.0916    1.8534  -21.1676 H   0  0  0  0  0  0  0  0  0  0  0  0
   -2.5774    0.9654  -18.9110 H   0  0  0  0  0  0  0  0  0  0  0  0
   -4.0904   -0.2144  -17.3615 H   0  0  0  0  0  0  0  0  0  0  0  0
   -7.6426   -1.8361  -18.6367 H   0  0  0  0  0  0  0  0  0  0  0  0
   -8.1395   -2.2145  -20.8956 H   0  0  0  0  0  0  0  0  0  0  0  0
   -6.8844   -1.9571  -22.1207 H   0  0  0  0  0  0  0  0  0  0  0  0
   -8.5692   -2.3466  -24.2004 C   0  0  0  0  0  0  0  0  0  0  0  0
   -9.3671   -2.5484  -23.4937 H   0  0  0  0  0  0  0  0  0  0  0  0
   -6.4097    0.1216  -25.0889 H   0  0  0  0  0  0  0  0  0  0  0  0
   -5.7640   -1.6003  -26.7751 H   0  0  0  0  0  0  0  0  0  0  0  0
   -6.9214   -3.7934  -26.8041 H   0  0  0  0  0  0  0  0  0  0  0  0
   -8.7683   -5.0335  -26.1018 H   0  0  0  0  0  0  0  0  0  0  0  0
  -11.4643   -6.3876  -24.3620 H   0  0  0  0  0  0  0  0  0  0  0  0
   -9.8598   -7.0923  -24.5937 H   0  0  0  0  0  0  0  0  0  0  0  0
  -11.5577   -5.5964  -26.6918 H   0  0  0  0  0  0  0  0  0  0  0  0
  -11.3251   -7.3460  -26.6673 H   0  0  0  0  0  0  0  0  0  0  0  0
   -9.9860   -6.2706  -27.0723 H   0  0  0  0  0  0  0  0  0  0  0  0
  1  2  1  0
  2  3  1  0
  3  4  2  0
  3  5  1  0
  5  6  1  0
  6  7  2  0
  7  8  1  0
  8  9  2  0
  9 10  1  0
 10 11  1  0
 11 12  1  0
 12 13  1  0
 13 14  2  0
 14 15  1  0
 15 16  2  0
 16 17  1  0
 17 18  2  0
 18 19  1  0
 17 20  1  0
 16 21  1  0
 15 22  1  0
 14 23  1  0
 12 24  1  0
 12 25  1  0
 11 26  1  0
 26 27  2  0
 26 28  1  0
 28 29  1  0
 29 30  2  0
 30 31  1  0
 31 32  2  0
 32 33  1  0
 33 34  2  0
 34 35  1  0
 35 36  2  0
 36 37  1  0
 37 38  2  0
 37 39  1  0
 36 40  1  0
 35 41  1  0
 34 42  1  0
 32 43  1  0
 30 44  1  0
 28 45  1  0
 28 46  1  0
 10 47  2  0
 47 48  1  0
  9 49  1  0
  8 50  1  0
  7 51  1  0
  5 52  1  0
  2 53  1  0
  2 54  1  0
  1 55  1  0
  1 56  1  0
  1 57  1  0
 47  6  1  0
 18 13  1  0
 38 29  1  0
 38 33  1  0
M  END
>  <cnnaffinities>  (50) 
[6.35026, 6.34701]

>  <score>  (50) 
6.35026

>  <index>  (50) 
52

>  <Smiles>  (50) 
C(C(C(=O)N(c1c(c(c(c(N(C(c2c(c(c(c(c2[H])[H])[H])[H])[H])([H])[H])C(=O)C(c2c(nc(c3c(c(c(c(c23)[H])[H])[H])[H])[H])[H])([H])[H])c1[H])[H])[H])[H])[H])([H])[H])([H])([H])[H]

>  <h>  (50) 
<NA>

>  <Training>  (50) 
True

>  <Success>  (50) 
True

>  <enamine_searched>  (50) 
False

>  <enamine_id>  (50) 
nan

$$$$

     RDKit          3D

 59 63  0  0  0  0  0  0  0  0999 V2000
   -7.5218   -6.1584  -28.9946 C   0  0  0  0  0  0  0  0  0  0  0  0
   -8.7687   -5.4933  -28.4154 C   0  0  0  0  0  0  0  0  0  0  0  0
   -8.5952   -4.0700  -28.1352 N   0  0  0  0  0  0  0  0  0  0  0  0
   -7.7511   -3.6804  -27.1317 C   0  0  0  0  0  0  0  0  0  0  0  0
   -7.0502   -4.4576  -26.4999 O   0  0  0  0  0  0  0  0  0  0  0  0
   -7.7353   -2.1687  -26.8656 C   0  0  0  0  0  0  0  0  0  0  0  0
   -8.5797   -1.8423  -25.7207 N   0  0  0  0  0  0  0  0  0  0  0  0
   -7.9977   -1.2925  -24.4990 C   0  0  0  0  0  0  0  0  0  0  0  0
   -8.8314   -1.5685  -23.2149 C   0  0  2  0  0  0  0  0  0  0  0  0
   -8.2457   -0.6297  -22.1243 C   0  0  0  0  0  0  0  0  0  0  0  0
   -8.3961    0.5715  -22.0469 O   0  0  0  0  0  0  0  0  0  0  0  0
   -7.4526   -1.3770  -21.2682 N   0  0  0  0  0  0  0  0  0  0  0  0
   -6.5442   -0.9161  -20.2738 C   0  0  0  0  0  0  0  0  0  0  0  0
   -6.7270   -1.3391  -18.9760 C   0  0  0  0  0  0  0  0  0  0  0  0
   -5.8435   -1.1630  -17.9660 N   0  0  0  0  0  0  0  0  0  0  0  0
   -4.7204   -0.5516  -18.2470 C   0  0  0  0  0  0  0  0  0  0  0  0
   -4.4038   -0.0317  -19.5321 C   0  0  0  0  0  0  0  0  0  0  0  0
   -3.1857    0.6638  -19.7668 C   0  0  0  0  0  0  0  0  0  0  0  0
   -2.8973    1.1662  -21.0046 C   0  0  0  0  0  0  0  0  0  0  0  0
   -3.7927    0.9498  -22.0760 C   0  0  0  0  0  0  0  0  0  0  0  0
   -4.9628    0.2520  -21.8827 C   0  0  0  0  0  0  0  0  0  0  0  0
   -5.3213   -0.2291  -20.5927 C   0  0  0  0  0  0  0  0  0  0  0  0
   -5.6125    0.0376  -22.7267 H   0  0  0  0  0  0  0  0  0  0  0  0
   -3.5717    1.3698  -23.0501 H   0  0  0  0  0  0  0  0  0  0  0  0
   -1.9851    1.7378  -21.1681 H   0  0  0  0  0  0  0  0  0  0  0  0
   -2.5176    0.8252  -18.9266 H   0  0  0  0  0  0  0  0  0  0  0  0
   -3.9989   -0.4296  -17.4399 H   0  0  0  0  0  0  0  0  0  0  0  0
   -7.6403   -1.8580  -18.6907 H   0  0  0  0  0  0  0  0  0  0  0  0
   -7.3944   -2.7734  -21.6288 C   0  0  0  0  0  0  0  0  0  0  0  0
   -8.5790   -2.9698  -22.5684 C   0  0  2  0  0  0  0  0  0  0  0  0
   -8.3527   -4.1370  -23.5158 C   0  0  0  0  0  0  0  0  0  0  0  0
   -8.2602   -5.0700  -22.9526 H   0  0  0  0  0  0  0  0  0  0  0  0
   -7.4325   -4.0144  -24.0971 H   0  0  0  0  0  0  0  0  0  0  0  0
   -9.1791   -4.2477  -24.2199 H   0  0  0  0  0  0  0  0  0  0  0  0
   -9.4668   -3.1652  -21.9491 H   0  0  0  0  0  0  0  0  0  0  0  0
   -6.4426   -3.0368  -22.1155 H   0  0  0  0  0  0  0  0  0  0  0  0
   -7.4555   -3.3853  -20.7332 H   0  0  0  0  0  0  0  0  0  0  0  0
  -10.3084   -1.3413  -23.5192 C   0  0  0  0  0  0  0  0  0  0  0  0
  -11.2463   -1.2155  -22.4751 C   0  0  0  0  0  0  0  0  0  0  0  0
  -12.5944   -1.0664  -22.7808 C   0  0  0  0  0  0  0  0  0  0  0  0
  -13.8162   -1.0132  -21.5393 Cl  0  0  0  0  0  0  0  0  0  0  0  0
  -13.0477   -0.9898  -24.0974 C   0  0  0  0  0  0  0  0  0  0  0  0
  -12.1336   -1.1229  -25.1239 C   0  0  0  0  0  0  0  0  0  0  0  0
  -10.7883   -1.3573  -24.8396 C   0  0  0  0  0  0  0  0  0  0  0  0
   -9.9103   -1.7247  -25.9887 C   0  0  0  0  0  0  0  0  0  0  0  0
  -10.3647   -1.9457  -27.1181 O   0  0  0  0  0  0  0  0  0  0  0  0
  -12.4456   -1.0812  -26.1644 H   0  0  0  0  0  0  0  0  0  0  0  0
  -14.1115   -0.8788  -24.2883 H   0  0  0  0  0  0  0  0  0  0  0  0
  -10.9276   -1.2480  -21.4363 H   0  0  0  0  0  0  0  0  0  0  0  0
   -6.9901   -1.7079  -24.3798 H   0  0  0  0  0  0  0  0  0  0  0  0
   -7.8821   -0.2043  -24.5857 H   0  0  0  0  0  0  0  0  0  0  0  0
   -8.1211   -1.6381  -27.7441 H   0  0  0  0  0  0  0  0  0  0  0  0
   -6.7078   -1.8486  -26.6671 H   0  0  0  0  0  0  0  0  0  0  0  0
   -9.4093   -3.4783  -28.2707 H   0  0  0  0  0  0  0  0  0  0  0  0
   -9.5974   -5.5847  -29.1273 H   0  0  0  0  0  0  0  0  0  0  0  0
   -9.0585   -6.0226  -27.4983 H   0  0  0  0  0  0  0  0  0  0  0  0
   -6.7016   -6.1585  -28.2753 H   0  0  0  0  0  0  0  0  0  0  0  0
   -7.1854   -5.6593  -29.9060 H   0  0  0  0  0  0  0  0  0  0  0  0
   -7.7406   -7.2018  -29.2419 H   0  0  0  0  0  0  0  0  0  0  0  0
  1  2  1  0
  2  3  1  0
  3  4  1  0
  4  5  2  0
  4  6  1  0
  6  7  1  0
  7  8  1  0
  9  8  1  6
  9 10  1  0
 10 11  2  0
 10 12  1  0
 12 13  1  0
 13 14  2  0
 14 15  1  0
 15 16  2  0
 16 17  1  0
 17 18  2  0
 18 19  1  0
 19 20  2  0
 20 21  1  0
 21 22  2  0
 21 23  1  0
 20 24  1  0
 19 25  1  0
 18 26  1  0
 16 27  1  0
 14 28  1  0
 12 29  1  0
 29 30  1  0
 30 31  1  0
 31 32  1  0
 31 33  1  0
 31 34  1  0
 30 35  1  1
 29 36  1  0
 29 37  1  0
  9 38  1  0
 38 39  2  0
 39 40  1  0
 40 41  1  0
 40 42  2  0
 42 43  1  0
 43 44  2  0
 44 45  1  0
 45 46  2  0
 43 47  1  0
 42 48  1  0
 39 49  1  0
  8 50  1  0
  8 51  1  0
  6 52  1  0
  6 53  1  0
  3 54  1  0
  2 55  1  0
  2 56  1  0
  1 57  1  0
  1 58  1  0
  1 59  1  0
 45  7  1  0
 30  9  1  0
 44 38  1  0
 22 13  1  0
 22 17  1  0
M  END
>  <cnnaffinities>  (51) 
[6.3964, 6.51165]

>  <score>  (51) 
6.3964

>  <index>  (51) 
53

>  <Smiles>  (51) 
C(C(N(C(=O)C(N1C([C@@]2(C(=O)N(c3c(nc(c4c(c(c(c(c34)[H])[H])[H])[H])[H])[H])C([C@@]2(C([H])([H])[H])[H])([H])[H])c2c(c(Cl)c(c(c2C1=O)[H])[H])[H])([H])[H])([H])[H])[H])([H])[H])([H])([H])[H]

>  <h>  (51) 
<NA>

>  <Training>  (51) 
True

>  <Success>  (51) 
True

>  <enamine_searched>  (51) 
False

>  <enamine_id>  (51) 
nan

$$$$

     RDKit          3D

 40 43  0  0  0  0  0  0  0  0999 V2000
   -7.9587   -3.5377  -24.0321 C   0  0  0  0  0  0  0  0  0  0  0  0
   -8.0125   -2.6603  -22.8947 N   0  0  0  0  0  0  0  0  0  0  0  0
   -9.0655   -2.0144  -22.3087 C   0  0  0  0  0  0  0  0  0  0  0  0
  -10.4393   -2.0451  -22.8911 C   0  0  0  0  0  0  0  0  0  0  0  0
  -10.5389   -1.1650  -24.1255 C   0  0  0  0  0  0  0  0  0  0  0  0
  -10.5372    0.2196  -23.9672 C   0  0  0  0  0  0  0  0  0  0  0  0
  -10.6033    1.0601  -25.0728 C   0  0  0  0  0  0  0  0  0  0  0  0
  -10.6499    0.5207  -26.3555 C   0  0  0  0  0  0  0  0  0  0  0  0
  -10.6579   -0.8598  -26.5241 C   0  0  0  0  0  0  0  0  0  0  0  0
  -10.5874   -1.6969  -25.4134 C   0  0  0  0  0  0  0  0  0  0  0  0
  -10.5421   -2.7756  -25.5533 H   0  0  0  0  0  0  0  0  0  0  0  0
  -10.7104   -1.2821  -27.5239 H   0  0  0  0  0  0  0  0  0  0  0  0
  -10.6484    1.1694  -27.2271 H   0  0  0  0  0  0  0  0  0  0  0  0
  -10.6066    2.1382  -24.9338 H   0  0  0  0  0  0  0  0  0  0  0  0
  -10.4701    0.6320  -22.9621 H   0  0  0  0  0  0  0  0  0  0  0  0
  -10.7183   -3.0764  -23.1426 H   0  0  0  0  0  0  0  0  0  0  0  0
  -11.1183   -1.7061  -22.1026 H   0  0  0  0  0  0  0  0  0  0  0  0
   -8.6937   -1.3246  -21.2700 N   0  0  0  0  0  0  0  0  0  0  0  0
   -7.3338   -1.4831  -21.2259 N   0  0  0  0  0  0  0  0  0  0  0  0
   -6.4855   -1.0056  -20.2156 C   0  0  0  0  0  0  0  0  0  0  0  0
   -6.7782   -1.2707  -18.9064 C   0  0  0  0  0  0  0  0  0  0  0  0
   -5.9433   -0.9951  -17.8868 N   0  0  0  0  0  0  0  0  0  0  0  0
   -4.8170   -0.3826  -18.1742 C   0  0  0  0  0  0  0  0  0  0  0  0
   -4.4447    0.0308  -19.4857 C   0  0  0  0  0  0  0  0  0  0  0  0
   -3.2888    0.8258  -19.7267 C   0  0  0  0  0  0  0  0  0  0  0  0
   -3.0692    1.3788  -20.9583 C   0  0  0  0  0  0  0  0  0  0  0  0
   -3.9367    1.0754  -22.0357 C   0  0  0  0  0  0  0  0  0  0  0  0
   -5.0125    0.2486  -21.8542 C   0  0  0  0  0  0  0  0  0  0  0  0
   -5.3100   -0.2704  -20.5556 C   0  0  0  0  0  0  0  0  0  0  0  0
   -5.7052    0.0727  -22.6739 H   0  0  0  0  0  0  0  0  0  0  0  0
   -3.7602    1.5155  -23.0141 H   0  0  0  0  0  0  0  0  0  0  0  0
   -2.2748    2.1039  -21.1087 H   0  0  0  0  0  0  0  0  0  0  0  0
   -2.6259    1.0414  -18.8900 H   0  0  0  0  0  0  0  0  0  0  0  0
   -4.1689   -0.1432  -17.3329 H   0  0  0  0  0  0  0  0  0  0  0  0
   -7.7440   -1.6963  -18.6550 H   0  0  0  0  0  0  0  0  0  0  0  0
   -6.8776   -2.3727  -22.1636 C   0  0  0  0  0  0  0  0  0  0  0  0
   -5.7525   -2.8073  -22.3005 O   0  0  0  0  0  0  0  0  0  0  0  0
   -8.8134   -4.2159  -24.0300 H   0  0  0  0  0  0  0  0  0  0  0  0
   -7.0364   -4.1114  -23.9379 H   0  0  0  0  0  0  0  0  0  0  0  0
   -7.9310   -2.9639  -24.9613 H   0  0  0  0  0  0  0  0  0  0  0  0
  1  2  1  0
  2  3  1  0
  3  4  1  0
  4  5  1  0
  5  6  2  0
  6  7  1  0
  7  8  2  0
  8  9  1  0
  9 10  2  0
 10 11  1  0
  9 12  1  0
  8 13  1  0
  7 14  1  0
  6 15  1  0
  4 16  1  0
  4 17  1  0
  3 18  2  0
 18 19  1  0
 19 20  1  0
 20 21  2  0
 21 22  1  0
 22 23  2  0
 23 24  1  0
 24 25  2  0
 25 26  1  0
 26 27  2  0
 27 28  1  0
 28 29  2  0
 28 30  1  0
 27 31  1  0
 26 32  1  0
 25 33  1  0
 23 34  1  0
 21 35  1  0
 19 36  1  0
 36 37  2  0
  1 38  1  0
  1 39  1  0
  1 40  1  0
 36  2  1  0
 10  5  1  0
 29 20  1  0
 29 24  1  0
M  END
>  <cnnaffinities>  (52) 
[5.73742, 5.73806]

>  <score>  (52) 
5.73742

>  <index>  (52) 
54

>  <Smiles>  (52) 
C(n1c(C(c2c(c(c(c(c2[H])[H])[H])[H])[H])([H])[H])nn(c2c(nc(c3c(c(c(c(c23)[H])[H])[H])[H])[H])[H])c1=O)([H])([H])[H]

>  <h>  (52) 
<NA>

>  <Training>  (52) 
True

>  <Success>  (52) 
True

>  <enamine_searched>  (52) 
False

>  <enamine_id>  (52) 
nan

$$$$

     RDKit          3D

 61 66  0  0  0  0  0  0  0  0999 V2000
   -7.0135   -5.4579  -25.0335 C   0  0  0  0  0  0  0  0  0  0  0  0
   -7.3598   -4.7876  -23.8499 O   0  0  0  0  0  0  0  0  0  0  0  0
   -8.0134   -3.5683  -24.0961 C   0  0  0  0  0  0  0  0  0  0  0  0
   -8.3085   -2.9182  -22.7522 C   0  0  1  0  0  0  0  0  0  0  0  0
   -7.0134   -2.5731  -22.0008 C   0  0  0  0  0  0  0  0  0  0  0  0
   -7.3730   -1.4044  -21.2316 N   0  0  0  0  0  0  0  0  0  0  0  0
   -6.5216   -0.9431  -20.2054 C   0  0  0  0  0  0  0  0  0  0  0  0
   -6.7592   -1.2717  -18.8962 C   0  0  0  0  0  0  0  0  0  0  0  0
   -5.8821   -1.0350  -17.8887 N   0  0  0  0  0  0  0  0  0  0  0  0
   -4.7563   -0.4338  -18.1855 C   0  0  0  0  0  0  0  0  0  0  0  0
   -4.4138    0.0053  -19.4962 C   0  0  0  0  0  0  0  0  0  0  0  0
   -3.2451    0.7621  -19.7578 C   0  0  0  0  0  0  0  0  0  0  0  0
   -3.0255    1.2904  -21.0007 C   0  0  0  0  0  0  0  0  0  0  0  0
   -3.9242    1.0200  -22.0562 C   0  0  0  0  0  0  0  0  0  0  0  0
   -5.0119    0.2089  -21.8467 C   0  0  0  0  0  0  0  0  0  0  0  0
   -5.3199   -0.2555  -20.5420 C   0  0  0  0  0  0  0  0  0  0  0  0
   -5.6873   -0.0372  -22.6580 H   0  0  0  0  0  0  0  0  0  0  0  0
   -3.7512    1.4596  -23.0360 H   0  0  0  0  0  0  0  0  0  0  0  0
   -2.1761    1.9410  -21.1708 H   0  0  0  0  0  0  0  0  0  0  0  0
   -2.5667    0.9442  -18.9288 H   0  0  0  0  0  0  0  0  0  0  0  0
   -4.0389   -0.2692  -17.3771 H   0  0  0  0  0  0  0  0  0  0  0  0
   -7.6949   -1.7605  -18.6325 H   0  0  0  0  0  0  0  0  0  0  0  0
   -8.5793   -0.8294  -21.5632 C   0  0  0  0  0  0  0  0  0  0  0  0
   -9.0752    0.1239  -21.0011 O   0  0  0  0  0  0  0  0  0  0  0  0
   -9.1451   -1.6064  -22.7840 C   0  0  1  0  0  0  0  0  0  0  0  0
   -8.8618   -0.8109  -24.0857 C   0  0  0  0  0  0  0  0  0  0  0  0
   -9.6716    0.3896  -24.1704 N   0  0  0  0  0  0  0  0  0  0  0  0
   -9.0490    1.6116  -24.6601 C   0  0  0  0  0  0  0  0  0  0  0  0
   -8.2055    2.2720  -23.6157 C   0  0  0  0  0  0  0  0  0  0  0  0
   -6.8588    2.3267  -23.4657 C   0  0  0  0  0  0  0  0  0  0  0  0
   -6.5935    3.0765  -22.3414 N   0  0  0  0  0  4  0  0  0  0  0  0
   -7.7527    3.4694  -21.8130 C   0  0  0  0  0  0  0  0  0  0  0  0
   -8.7575    2.9853  -22.5645 N   0  0  0  0  0  0  0  0  0  0  0  0
   -9.7342    2.9302  -22.2817 H   0  0  0  0  0  0  0  0  0  0  0  0
   -7.8481    4.1481  -20.9875 H   0  0  0  0  0  0  0  0  0  0  0  0
   -5.6848    3.1022  -21.8814 H   0  0  0  0  0  0  0  0  0  0  0  0
   -6.0374    1.8941  -24.0254 H   0  0  0  0  0  0  0  0  0  0  0  0
   -9.8544    2.2729  -24.9967 H   0  0  0  0  0  0  0  0  0  0  0  0
   -8.4409    1.3706  -25.5411 H   0  0  0  0  0  0  0  0  0  0  0  0
  -11.0288    0.3282  -24.0136 C   0  0  0  0  0  0  0  0  0  0  0  0
  -11.7856    1.1956  -24.4284 O   0  0  0  0  0  0  0  0  0  0  0  0
  -11.5334   -0.8743  -23.2654 C   0  0  0  0  0  0  0  0  0  0  0  0
  -12.9145   -1.0173  -23.1232 C   0  0  0  0  0  0  0  0  0  0  0  0
  -13.4437   -2.0015  -22.3148 C   0  0  0  0  0  0  0  0  0  0  0  0
  -12.5609   -2.8432  -21.6416 C   0  0  0  0  0  0  0  0  0  0  0  0
  -13.2038   -3.9774  -20.4953 Cl  0  0  0  0  0  0  0  0  0  0  0  0
  -11.1921   -2.7614  -21.8243 C   0  0  0  0  0  0  0  0  0  0  0  0
  -10.6487   -1.7782  -22.6599 C   0  0  0  0  0  0  0  0  0  0  0  0
  -10.5613   -3.4569  -21.2814 H   0  0  0  0  0  0  0  0  0  0  0  0
  -14.5146   -2.1051  -22.1707 H   0  0  0  0  0  0  0  0  0  0  0  0
  -13.5579   -0.3132  -23.6367 H   0  0  0  0  0  0  0  0  0  0  0  0
   -9.0780   -1.4582  -24.9475 H   0  0  0  0  0  0  0  0  0  0  0  0
   -7.8016   -0.5353  -24.1293 H   0  0  0  0  0  0  0  0  0  0  0  0
   -6.1753   -2.3726  -22.6872 H   0  0  0  0  0  0  0  0  0  0  0  0
   -6.7004   -3.3804  -21.3315 H   0  0  0  0  0  0  0  0  0  0  0  0
   -8.8398   -3.6627  -22.1569 H   0  0  0  0  0  0  0  0  0  0  0  0
   -8.9462   -3.7306  -24.6630 H   0  0  0  0  0  0  0  0  0  0  0  0
   -7.3670   -2.9063  -24.7018 H   0  0  0  0  0  0  0  0  0  0  0  0
   -6.5456   -6.4047  -24.7536 H   0  0  0  0  0  0  0  0  0  0  0  0
   -7.8991   -5.6698  -25.6530 H   0  0  0  0  0  0  0  0  0  0  0  0
   -6.3001   -4.8756  -25.6380 H   0  0  0  0  0  0  0  0  0  0  0  0
  1  2  1  0
  2  3  1  0
  3  4  1  0
  4  5  1  0
  5  6  1  0
  6  7  1  0
  7  8  2  0
  8  9  1  0
  9 10  2  0
 10 11  1  0
 11 12  2  0
 12 13  1  0
 13 14  2  0
 14 15  1  0
 15 16  2  0
 15 17  1  0
 14 18  1  0
 13 19  1  0
 12 20  1  0
 10 21  1  0
  8 22  1  0
  6 23  1  0
 23 24  2  0
 23 25  1  0
 25 26  1  6
 26 27  1  0
 27 28  1  0
 28 29  1  0
 29 30  2  0
 30 31  1  0
 31 32  2  0
 32 33  1  0
 33 34  1  0
 32 35  1  0
 31 36  1  0
 30 37  1  0
 28 38  1  0
 28 39  1  0
 27 40  1  0
 40 41  2  0
 40 42  1  0
 42 43  2  0
 43 44  1  0
 44 45  2  0
 45 46  1  0
 45 47  1  0
 47 48  2  0
 47 49  1  0
 44 50  1  0
 43 51  1  0
 26 52  1  0
 26 53  1  0
  5 54  1  0
  5 55  1  0
  4 56  1  1
  3 57  1  0
  3 58  1  0
  1 59  1  0
  1 60  1  0
  1 61  1  0
 25  4  1  0
 33 29  1  0
 48 42  1  0
 16  7  1  0
 48 25  1  0
 16 11  1  0
M  CHG  1  31   1
M  END
>  <cnnaffinities>  (53) 
[6.69689, 6.5931]

>  <score>  (53) 
6.69689

>  <index>  (53) 
55

>  <Smiles>  (53) 
C(OC([C@]1(C(N(c2c(nc(c3c(c(c(c(c23)[H])[H])[H])[H])[H])[H])C(=O)[C@]21C(N(C(c1c([n+](c(n1[H])[H])[H])[H])([H])[H])C(=O)c1c(c(c(Cl)c(c21)[H])[H])[H])([H])[H])([H])[H])[H])([H])[H])([H])([H])[H]

>  <h>  (53) 
<NA>

>  <Training>  (53) 
True

>  <Success>  (53) 
True

>  <enamine_searched>  (53) 
False

>  <enamine_id>  (53) 
nan

$$$$

     RDKit          3D

 57 62  0  0  0  0  0  0  0  0999 V2000
   -8.3018   -4.1386  -23.4876 C   0  0  0  0  0  0  0  0  0  0  0  0
   -8.5423   -2.9763  -22.5436 C   0  0  1  0  0  0  0  0  0  0  0  0
   -7.3823   -2.7893  -21.5686 C   0  0  0  0  0  0  0  0  0  0  0  0
   -7.4223   -1.3868  -21.2374 N   0  0  0  0  0  0  0  0  0  0  0  0
   -6.5281   -0.9194  -20.2426 C   0  0  0  0  0  0  0  0  0  0  0  0
   -6.7544   -1.2657  -18.9355 C   0  0  0  0  0  0  0  0  0  0  0  0
   -5.9083   -1.0155  -17.9081 N   0  0  0  0  0  0  0  0  0  0  0  0
   -4.7859   -0.4004  -18.1829 C   0  0  0  0  0  0  0  0  0  0  0  0
   -4.4339    0.0318  -19.4901 C   0  0  0  0  0  0  0  0  0  0  0  0
   -3.2541    0.7794  -19.7222 C   0  0  0  0  0  0  0  0  0  0  0  0
   -2.9921    1.2803  -20.9696 C   0  0  0  0  0  0  0  0  0  0  0  0
   -3.8452    0.9743  -22.0552 C   0  0  0  0  0  0  0  0  0  0  0  0
   -4.9647    0.2112  -21.8643 C   0  0  0  0  0  0  0  0  0  0  0  0
   -5.3139   -0.2373  -20.5613 C   0  0  0  0  0  0  0  0  0  0  0  0
   -5.5924   -0.0583  -22.7075 H   0  0  0  0  0  0  0  0  0  0  0  0
   -3.6199    1.3704  -23.0420 H   0  0  0  0  0  0  0  0  0  0  0  0
   -2.1325    1.9234  -21.1285 H   0  0  0  0  0  0  0  0  0  0  0  0
   -2.6196    0.9939  -18.8668 H   0  0  0  0  0  0  0  0  0  0  0  0
   -4.0802   -0.2194  -17.3674 H   0  0  0  0  0  0  0  0  0  0  0  0
   -7.6717   -1.7993  -18.6893 H   0  0  0  0  0  0  0  0  0  0  0  0
   -8.1536   -0.6236  -22.1244 C   0  0  0  0  0  0  0  0  0  0  0  0
   -8.2625    0.5808  -22.0771 O   0  0  0  0  0  0  0  0  0  0  0  0
   -8.7590   -1.5628  -23.1933 C   0  0  1  0  0  0  0  0  0  0  0  0
   -7.9709   -1.3025  -24.5000 C   0  0  0  0  0  0  0  0  0  0  0  0
   -8.6134   -1.8754  -25.6775 N   0  0  0  0  0  0  0  0  0  0  0  0
   -7.7934   -2.3041  -26.8021 C   0  0  0  0  0  0  0  0  0  0  0  0
   -7.6952   -3.8105  -26.8601 C   0  0  0  0  0  0  0  0  0  0  0  0
   -6.5247   -4.3493  -26.5196 N   0  0  0  0  0  0  0  0  0  0  0  0
   -6.4366   -5.6766  -26.6588 C   0  0  0  0  0  0  0  0  0  0  0  0
   -7.4938   -6.4590  -27.0827 C   0  0  0  0  0  0  0  0  0  0  0  0
   -8.6794   -5.7908  -27.3509 C   0  0  0  0  0  0  0  0  0  0  0  0
   -8.7997   -4.4728  -27.2304 N   0  0  0  0  0  0  0  0  0  0  0  0
   -9.5630   -6.3361  -27.6801 H   0  0  0  0  0  0  0  0  0  0  0  0
   -7.4053   -7.5335  -27.2033 H   0  0  0  0  0  0  0  0  0  0  0  0
   -5.4719   -6.1256  -26.4323 H   0  0  0  0  0  0  0  0  0  0  0  0
   -8.2718   -1.9243  -27.7126 H   0  0  0  0  0  0  0  0  0  0  0  0
   -6.7934   -1.8729  -26.7059 H   0  0  0  0  0  0  0  0  0  0  0  0
   -9.9528   -1.7289  -25.9156 C   0  0  0  0  0  0  0  0  0  0  0  0
  -10.4483   -1.9110  -27.0204 O   0  0  0  0  0  0  0  0  0  0  0  0
  -10.7758   -1.3587  -24.7360 C   0  0  0  0  0  0  0  0  0  0  0  0
  -12.1362   -1.1578  -24.9523 C   0  0  0  0  0  0  0  0  0  0  0  0
  -12.9857   -0.8696  -23.9087 C   0  0  0  0  0  0  0  0  0  0  0  0
  -12.4289   -0.7913  -22.6406 C   0  0  0  0  0  0  0  0  0  0  0  0
  -13.2613   -0.5326  -21.6259 F   0  0  0  0  0  0  0  0  0  0  0  0
  -11.0815   -0.9884  -22.3932 C   0  0  0  0  0  0  0  0  0  0  0  0
  -10.2222   -1.2702  -23.4576 C   0  0  0  0  0  0  0  0  0  0  0  0
  -10.6918   -0.9299  -21.3856 H   0  0  0  0  0  0  0  0  0  0  0  0
  -14.0502   -0.7112  -24.0522 H   0  0  0  0  0  0  0  0  0  0  0  0
  -12.5018   -1.2469  -25.9655 H   0  0  0  0  0  0  0  0  0  0  0  0
   -6.9596   -1.7199  -24.4127 H   0  0  0  0  0  0  0  0  0  0  0  0
   -7.8614   -0.2150  -24.6292 H   0  0  0  0  0  0  0  0  0  0  0  0
   -7.4980   -3.3556  -20.6515 H   0  0  0  0  0  0  0  0  0  0  0  0
   -6.4126   -3.0776  -22.0081 H   0  0  0  0  0  0  0  0  0  0  0  0
   -9.4499   -3.1746  -21.9524 H   0  0  0  0  0  0  0  0  0  0  0  0
   -7.3446   -4.0121  -24.0029 H   0  0  0  0  0  0  0  0  0  0  0  0
   -8.2599   -5.0727  -22.9192 H   0  0  0  0  0  0  0  0  0  0  0  0
   -9.0956   -4.2075  -24.2362 H   0  0  0  0  0  0  0  0  0  0  0  0
  1  2  1  0
  2  3  1  0
  3  4  1  0
  4  5  1  0
  5  6  2  0
  6  7  1  0
  7  8  2  0
  8  9  1  0
  9 10  2  0
 10 11  1  0
 11 12  2  0
 12 13  1  0
 13 14  2  0
 13 15  1  0
 12 16  1  0
 11 17  1  0
 10 18  1  0
  8 19  1  0
  6 20  1  0
  4 21  1  0
 21 22  2  0
 21 23  1  0
 23 24  1  6
 24 25  1  0
 25 26  1  0
 26 27  1  0
 27 28  2  0
 28 29  1  0
 29 30  2  0
 30 31  1  0
 31 32  2  0
 31 33  1  0
 30 34  1  0
 29 35  1  0
 26 36  1  0
 26 37  1  0
 25 38  1  0
 38 39  2  0
 38 40  1  0
 40 41  2  0
 41 42  1  0
 42 43  2  0
 43 44  1  0
 43 45  1  0
 45 46  2  0
 45 47  1  0
 42 48  1  0
 41 49  1  0
 24 50  1  0
 24 51  1  0
  3 52  1  0
  3 53  1  0
  2 54  1  1
  1 55  1  0
  1 56  1  0
  1 57  1  0
 23  2  1  0
 32 27  1  0
 46 40  1  0
 14  5  1  0
 46 23  1  0
 14  9  1  0
M  END
>  <cnnaffinities>  (54) 
[6.53017, 6.66562, 6.62157, 6.62194]

>  <score>  (54) 
6.53017

>  <index>  (54) 
56

>  <Smiles>  (54) 
C([C@]1(C(N(c2c(nc(c3c(c(c(c(c23)[H])[H])[H])[H])[H])[H])C(=O)[C@]21C(N(C(c1nc(c(c(n1)[H])[H])[H])([H])[H])C(=O)c1c(c(c(F)c(c21)[H])[H])[H])([H])[H])([H])[H])[H])([H])([H])[H]

>  <h>  (54) 
<NA>

>  <Training>  (54) 
True

>  <Success>  (54) 
True

>  <enamine_searched>  (54) 
False

>  <enamine_id>  (54) 
nan

$$$$

     RDKit          3D

 59 63  0  0  0  0  0  0  0  0999 V2000
  -14.5165   -1.2488  -23.5421 C   0  0  0  0  0  0  0  0  0  0  0  0
  -13.7851   -2.4318  -23.1297 N   0  0  0  0  0  0  0  0  0  0  0  0
  -13.4745   -2.6433  -21.8221 C   0  0  0  0  0  0  0  0  0  0  0  0
  -13.9290   -1.9439  -20.9287 O   0  0  0  0  0  0  0  0  0  0  0  0
  -12.5377   -3.8289  -21.5596 C   0  0  0  0  0  0  0  0  0  0  0  0
  -11.2209   -3.7705  -22.1956 N   0  0  0  0  0  0  0  0  0  0  0  0
  -10.0595   -3.2937  -21.4457 C   0  0  0  0  0  0  0  0  0  0  0  0
   -8.8512   -2.9362  -22.3509 C   0  0  2  0  0  0  0  0  0  0  0  0
   -7.6085   -2.7270  -21.4801 C   0  0  0  0  0  0  0  0  0  0  0  0
   -6.8361   -3.5835  -21.1030 O   0  0  0  0  0  0  0  0  0  0  0  0
   -7.4298   -1.3848  -21.2411 N   0  0  0  0  0  0  0  0  0  0  0  0
   -6.5242   -0.9788  -20.2242 C   0  0  0  0  0  0  0  0  0  0  0  0
   -6.7419   -1.3230  -18.9116 C   0  0  0  0  0  0  0  0  0  0  0  0
   -5.8722   -1.0710  -17.9027 N   0  0  0  0  0  0  0  0  0  0  0  0
   -4.7594   -0.4483  -18.1975 C   0  0  0  0  0  0  0  0  0  0  0  0
   -4.4256   -0.0016  -19.5042 C   0  0  0  0  0  0  0  0  0  0  0  0
   -3.2339    0.7249  -19.7545 C   0  0  0  0  0  0  0  0  0  0  0  0
   -2.9898    1.2410  -20.9976 C   0  0  0  0  0  0  0  0  0  0  0  0
   -3.8837    0.9738  -22.0611 C   0  0  0  0  0  0  0  0  0  0  0  0
   -5.0073    0.2149  -21.8532 C   0  0  0  0  0  0  0  0  0  0  0  0
   -5.3400   -0.2457  -20.5531 C   0  0  0  0  0  0  0  0  0  0  0  0
   -5.6422   -0.0640  -22.6867 H   0  0  0  0  0  0  0  0  0  0  0  0
   -3.6708    1.3679  -23.0510 H   0  0  0  0  0  0  0  0  0  0  0  0
   -2.1208    1.8681  -21.1720 H   0  0  0  0  0  0  0  0  0  0  0  0
   -2.5890    0.9509  -18.9085 H   0  0  0  0  0  0  0  0  0  0  0  0
   -4.0627   -0.2481  -17.3825 H   0  0  0  0  0  0  0  0  0  0  0  0
   -7.6442   -1.8634  -18.6321 H   0  0  0  0  0  0  0  0  0  0  0  0
   -8.4189   -0.5580  -21.9136 C   0  0  0  0  0  0  0  0  0  0  0  0
   -9.0262   -1.4875  -23.0058 C   0  0  0  0  0  0  0  0  0  0  0  0
  -10.4770   -1.0887  -23.3056 C   0  0  0  0  0  0  0  0  0  0  0  0
  -11.0922   -1.0725  -22.4012 H   0  0  0  0  0  0  0  0  0  0  0  0
  -10.9248   -1.8007  -24.0034 H   0  0  0  0  0  0  0  0  0  0  0  0
  -10.5289   -0.0935  -23.7604 H   0  0  0  0  0  0  0  0  0  0  0  0
   -8.2273   -1.4067  -24.3154 C   0  0  0  0  0  0  0  0  0  0  0  0
   -8.6243   -2.1298  -25.0363 H   0  0  0  0  0  0  0  0  0  0  0  0
   -8.3018   -0.4092  -24.7598 H   0  0  0  0  0  0  0  0  0  0  0  0
   -7.1695   -1.6499  -24.1624 H   0  0  0  0  0  0  0  0  0  0  0  0
   -7.9614    0.3402  -22.3411 H   0  0  0  0  0  0  0  0  0  0  0  0
   -9.1980   -0.2315  -21.2066 H   0  0  0  0  0  0  0  0  0  0  0  0
   -8.6069   -4.1027  -23.2840 C   0  0  0  0  0  0  0  0  0  0  0  0
   -7.3245   -4.4553  -23.7365 C   0  0  0  0  0  0  0  0  0  0  0  0
   -7.1648   -5.4693  -24.6644 C   0  0  0  0  0  0  0  0  0  0  0  0
   -5.5629   -5.8540  -25.2423 Cl  0  0  0  0  0  0  0  0  0  0  0  0
   -8.2509   -6.1927  -25.1521 C   0  0  0  0  0  0  0  0  0  0  0  0
   -9.5104   -5.8697  -24.6873 C   0  0  0  0  0  0  0  0  0  0  0  0
   -9.6860   -4.8412  -23.7648 C   0  0  0  0  0  0  0  0  0  0  0  0
  -11.0706   -4.5556  -23.3062 C   0  0  0  0  0  0  0  0  0  0  0  0
  -12.0400   -5.0217  -23.8957 O   0  0  0  0  0  0  0  0  0  0  0  0
  -10.3890   -6.4090  -25.0241 H   0  0  0  0  0  0  0  0  0  0  0  0
   -8.1055   -6.9861  -25.8762 H   0  0  0  0  0  0  0  0  0  0  0  0
   -6.4434   -3.9596  -23.3538 H   0  0  0  0  0  0  0  0  0  0  0  0
  -10.3278   -2.3960  -20.8831 H   0  0  0  0  0  0  0  0  0  0  0  0
   -9.7610   -4.0572  -20.7238 H   0  0  0  0  0  0  0  0  0  0  0  0
  -12.4579   -4.0103  -20.4859 H   0  0  0  0  0  0  0  0  0  0  0  0
  -13.0398   -4.6801  -22.0189 H   0  0  0  0  0  0  0  0  0  0  0  0
  -13.5254   -3.1187  -23.8222 H   0  0  0  0  0  0  0  0  0  0  0  0
  -13.8795   -0.3514  -23.5347 H   0  0  0  0  0  0  0  0  0  0  0  0
  -14.9012   -1.4126  -24.5541 H   0  0  0  0  0  0  0  0  0  0  0  0
  -15.3482   -1.0556  -22.8572 H   0  0  0  0  0  0  0  0  0  0  0  0
  1  2  1  0
  2  3  1  0
  3  4  2  0
  3  5  1  0
  5  6  1  0
  6  7  1  0
  8  7  1  1
  8  9  1  0
  9 10  2  0
  9 11  1  0
 11 12  1  0
 12 13  2  0
 13 14  1  0
 14 15  2  0
 15 16  1  0
 16 17  2  0
 17 18  1  0
 18 19  2  0
 19 20  1  0
 20 21  2  0
 20 22  1  0
 19 23  1  0
 18 24  1  0
 17 25  1  0
 15 26  1  0
 13 27  1  0
 11 28  1  0
 28 29  1  0
 29 30  1  0
 30 31  1  0
 30 32  1  0
 30 33  1  0
 29 34  1  0
 34 35  1  0
 34 36  1  0
 34 37  1  0
 28 38  1  0
 28 39  1  0
  8 40  1  0
 40 41  2  0
 41 42  1  0
 42 43  1  0
 42 44  2  0
 44 45  1  0
 45 46  2  0
 46 47  1  0
 47 48  2  0
 45 49  1  0
 44 50  1  0
 41 51  1  0
  7 52  1  0
  7 53  1  0
  5 54  1  0
  5 55  1  0
  2 56  1  0
  1 57  1  0
  1 58  1  0
  1 59  1  0
 47  6  1  0
 29  8  1  0
 46 40  1  0
 21 12  1  0
 21 16  1  0
M  END
>  <cnnaffinities>  (55) 
[6.59286]

>  <score>  (55) 
6.59286

>  <index>  (55) 
57

>  <Smiles>  (55) 
C(N(C(=O)C(N1C([C@@]2(C(=O)N(c3c(nc(c4c(c(c(c(c34)[H])[H])[H])[H])[H])[H])C(C2(C([H])([H])[H])C([H])([H])[H])([H])[H])c2c(c(Cl)c(c(c2C1=O)[H])[H])[H])([H])[H])([H])[H])[H])([H])([H])[H]

>  <h>  (55) 
<NA>

>  <Training>  (55) 
True

>  <Success>  (55) 
True

>  <enamine_searched>  (55) 
False

>  <enamine_id>  (55) 
nan

$$$$

     RDKit          3D

 42 45  0  0  0  0  0  0  0  0999 V2000
  -10.9900   -4.9434  -23.5521 C   0  0  0  0  0  0  0  0  0  0  0  0
  -10.1069   -3.8080  -23.6440 N   0  0  0  0  0  0  0  0  0  0  0  0
   -9.4117   -3.3096  -22.4772 C   0  0  0  0  0  0  0  0  0  0  0  0
   -9.4146   -1.7773  -22.5314 C   0  0  1  0  0  0  0  0  0  0  0  0
   -8.6345   -1.1195  -21.4057 C   0  0  0  0  0  0  0  0  0  0  0  0
   -9.0932   -0.2071  -20.7418 O   0  0  0  0  0  0  0  0  0  0  0  0
   -7.3385   -1.5560  -21.2588 N   0  0  0  0  0  0  0  0  0  0  0  0
   -6.4745   -1.0813  -20.2430 C   0  0  0  0  0  0  0  0  0  0  0  0
   -6.7492   -1.3017  -18.9217 C   0  0  0  0  0  0  0  0  0  0  0  0
   -5.8929   -1.0264  -17.9062 N   0  0  0  0  0  0  0  0  0  0  0  0
   -4.7522   -0.4501  -18.1955 C   0  0  0  0  0  0  0  0  0  0  0  0
   -4.4105   -0.0363  -19.5087 C   0  0  0  0  0  0  0  0  0  0  0  0
   -3.2492    0.7278  -19.7662 C   0  0  0  0  0  0  0  0  0  0  0  0
   -3.0435    1.2621  -21.0088 C   0  0  0  0  0  0  0  0  0  0  0  0
   -3.9538    1.0013  -22.0569 C   0  0  0  0  0  0  0  0  0  0  0  0
   -5.0544    0.2125  -21.8475 C   0  0  0  0  0  0  0  0  0  0  0  0
   -5.3036   -0.3256  -20.5619 C   0  0  0  0  0  0  0  0  0  0  0  0
   -5.7275   -0.0265  -22.6660 H   0  0  0  0  0  0  0  0  0  0  0  0
   -3.7982    1.4530  -23.0320 H   0  0  0  0  0  0  0  0  0  0  0  0
   -2.1977    1.9163  -21.1866 H   0  0  0  0  0  0  0  0  0  0  0  0
   -2.5935    0.9390  -18.9276 H   0  0  0  0  0  0  0  0  0  0  0  0
   -4.0546   -0.2473  -17.3778 H   0  0  0  0  0  0  0  0  0  0  0  0
   -7.6917   -1.7649  -18.6392 H   0  0  0  0  0  0  0  0  0  0  0  0
   -6.9381   -2.0714  -22.0328 H   0  0  0  0  0  0  0  0  0  0  0  0
   -8.9005   -1.2997  -23.8816 C   0  0  0  0  0  0  0  0  0  0  0  0
   -8.3137   -0.0420  -24.0324 C   0  0  0  0  0  0  0  0  0  0  0  0
   -7.8276    0.3510  -25.2698 C   0  0  0  0  0  0  0  0  0  0  0  0
   -7.0539    1.9067  -25.3980 Cl  0  0  0  0  0  0  0  0  0  0  0  0
   -7.9396   -0.4697  -26.3893 C   0  0  0  0  0  0  0  0  0  0  0  0
   -8.5495   -1.7029  -26.2448 C   0  0  0  0  0  0  0  0  0  0  0  0
   -9.0263   -2.1159  -25.0013 C   0  0  0  0  0  0  0  0  0  0  0  0
   -9.7402   -3.4186  -24.9032 C   0  0  0  0  0  0  0  0  0  0  0  0
  -10.0220   -4.0851  -25.8894 O   0  0  0  0  0  0  0  0  0  0  0  0
   -8.6788   -2.3652  -27.0943 H   0  0  0  0  0  0  0  0  0  0  0  0
   -7.5792   -0.1325  -27.3550 H   0  0  0  0  0  0  0  0  0  0  0  0
   -8.2305    0.6239  -23.1804 H   0  0  0  0  0  0  0  0  0  0  0  0
  -10.4451   -1.4352  -22.3967 H   0  0  0  0  0  0  0  0  0  0  0  0
   -8.3814   -3.6935  -22.4223 H   0  0  0  0  0  0  0  0  0  0  0  0
   -9.9301   -3.6521  -21.5741 H   0  0  0  0  0  0  0  0  0  0  0  0
  -11.9150   -4.7318  -24.0823 H   0  0  0  0  0  0  0  0  0  0  0  0
  -10.5393   -5.8356  -23.9958 H   0  0  0  0  0  0  0  0  0  0  0  0
  -11.2419   -5.1093  -22.5070 H   0  0  0  0  0  0  0  0  0  0  0  0
  1  2  1  0
  2  3  1  0
  3  4  1  0
  4  5  1  0
  5  6  2  0
  5  7  1  0
  7  8  1  0
  8  9  2  0
  9 10  1  0
 10 11  2  0
 11 12  1  0
 12 13  2  0
 13 14  1  0
 14 15  2  0
 15 16  1  0
 16 17  2  0
 16 18  1  0
 15 19  1  0
 14 20  1  0
 13 21  1  0
 11 22  1  0
  9 23  1  0
  7 24  1  0
  4 25  1  0
 25 26  2  0
 26 27  1  0
 27 28  1  0
 27 29  2  0
 29 30  1  0
 30 31  2  0
 31 32  1  0
 32 33  2  0
 30 34  1  0
 29 35  1  0
 26 36  1  0
  4 37  1  1
  3 38  1  0
  3 39  1  0
  1 40  1  0
  1 41  1  0
  1 42  1  0
 32  2  1  0
 17  8  1  0
 31 25  1  0
 17 12  1  0
M  END
>  <cnnaffinities>  (56) 
[5.50043]

>  <score>  (56) 
5.50043

>  <index>  (56) 
58

>  <Smiles>  (56) 
C(N1C([C@@](C(=O)N(c2c(nc(c3c(c(c(c(c23)[H])[H])[H])[H])[H])[H])[H])(c2c(c(Cl)c(c(c2C1=O)[H])[H])[H])[H])([H])[H])([H])([H])[H]

>  <h>  (56) 
<NA>

>  <Training>  (56) 
True

>  <Success>  (56) 
True

>  <enamine_searched>  (56) 
False

>  <enamine_id>  (56) 
nan

$$$$

     RDKit          3D

 60 65  0  0  0  0  0  0  0  0999 V2000
   -8.0045   -6.0091  -26.8027 C   0  0  0  0  0  0  0  0  0  0  0  0
   -8.2547   -4.5927  -27.0127 N   0  0  0  0  0  0  0  0  0  0  0  0
   -7.2870   -3.6941  -26.7095 C   0  0  0  0  0  0  0  0  0  0  0  0
   -6.1952   -4.0384  -26.2867 O   0  0  0  0  0  0  0  0  0  0  0  0
   -7.6858   -2.2154  -26.8343 C   0  0  0  0  0  0  0  0  0  0  0  0
   -8.5309   -1.8063  -25.7171 N   0  0  0  0  0  0  0  0  0  0  0  0
   -7.9443   -1.2573  -24.4941 C   0  0  0  0  0  0  0  0  0  0  0  0
   -8.7795   -1.5494  -23.2059 C   0  0  2  0  0  0  0  0  0  0  0  0
   -8.2020   -0.6196  -22.1128 C   0  0  0  0  0  0  0  0  0  0  0  0
   -8.3300    0.5850  -22.0510 O   0  0  0  0  0  0  0  0  0  0  0  0
   -7.4285   -1.3784  -21.2501 N   0  0  0  0  0  0  0  0  0  0  0  0
   -6.5431   -0.8950  -20.2468 C   0  0  0  0  0  0  0  0  0  0  0  0
   -6.7473   -1.2768  -18.9409 C   0  0  0  0  0  0  0  0  0  0  0  0
   -5.8783   -1.0582  -17.9268 N   0  0  0  0  0  0  0  0  0  0  0  0
   -4.7598   -0.4385  -18.2067 C   0  0  0  0  0  0  0  0  0  0  0  0
   -4.4189    0.0275  -19.5056 C   0  0  0  0  0  0  0  0  0  0  0  0
   -3.2138    0.7427  -19.7387 C   0  0  0  0  0  0  0  0  0  0  0  0
   -2.9332    1.2350  -20.9830 C   0  0  0  0  0  0  0  0  0  0  0  0
   -3.8120    0.9762  -22.0597 C   0  0  0  0  0  0  0  0  0  0  0  0
   -4.9557    0.2398  -21.8672 C   0  0  0  0  0  0  0  0  0  0  0  0
   -5.3264   -0.1993  -20.5656 C   0  0  0  0  0  0  0  0  0  0  0  0
   -5.5842   -0.0277  -22.7123 H   0  0  0  0  0  0  0  0  0  0  0  0
   -3.5797    1.3622  -23.0487 H   0  0  0  0  0  0  0  0  0  0  0  0
   -2.0460    1.8407  -21.1474 H   0  0  0  0  0  0  0  0  0  0  0  0
   -2.5770    0.9578  -18.8836 H   0  0  0  0  0  0  0  0  0  0  0  0
   -4.0642   -0.2645  -17.3855 H   0  0  0  0  0  0  0  0  0  0  0  0
   -7.6523   -1.8216  -18.6734 H   0  0  0  0  0  0  0  0  0  0  0  0
   -7.3950   -2.7868  -21.5834 C   0  0  0  0  0  0  0  0  0  0  0  0
   -8.5415   -2.9661  -22.5762 C   0  0  2  0  0  0  0  0  0  0  0  0
   -8.2814   -4.0989  -23.5744 C   0  0  0  0  0  0  0  0  0  0  0  0
   -8.1077   -5.4603  -22.9784 C   0  0  0  0  0  0  0  0  0  0  0  0
   -7.2087   -5.7670  -22.0477 N   0  0  0  0  0  0  0  0  0  0  0  0
   -7.3037   -7.0834  -21.9009 N   0  0  0  0  0  0  0  0  0  0  0  0
   -8.2290   -7.5517  -22.6910 N   0  0  0  0  0  2  0  0  0  0  0  0
   -8.7442   -6.5496  -23.3998 N   0  0  0  0  0  0  0  0  0  0  0  0
   -9.1083   -4.1668  -24.2789 H   0  0  0  0  0  0  0  0  0  0  0  0
   -7.3537   -3.8956  -24.1266 H   0  0  0  0  0  0  0  0  0  0  0  0
   -9.4487   -3.2024  -22.0023 H   0  0  0  0  0  0  0  0  0  0  0  0
   -7.5209   -3.3808  -20.6846 H   0  0  0  0  0  0  0  0  0  0  0  0
   -6.4341   -3.0970  -22.0166 H   0  0  0  0  0  0  0  0  0  0  0  0
  -10.2539   -1.3038  -23.5021 C   0  0  0  0  0  0  0  0  0  0  0  0
  -11.1881   -1.1238  -22.4633 C   0  0  0  0  0  0  0  0  0  0  0  0
  -12.5382   -0.9812  -22.7636 C   0  0  0  0  0  0  0  0  0  0  0  0
  -13.7581   -0.8933  -21.5226 Cl  0  0  0  0  0  0  0  0  0  0  0  0
  -12.9893   -0.9515  -24.0821 C   0  0  0  0  0  0  0  0  0  0  0  0
  -12.0832   -1.1454  -25.1038 C   0  0  0  0  0  0  0  0  0  0  0  0
  -10.7410   -1.3826  -24.8136 C   0  0  0  0  0  0  0  0  0  0  0  0
   -9.8758   -1.8239  -25.9436 C   0  0  0  0  0  0  0  0  0  0  0  0
  -10.3532   -2.2210  -27.0039 O   0  0  0  0  0  0  0  0  0  0  0  0
  -12.3976   -1.1474  -26.1446 H   0  0  0  0  0  0  0  0  0  0  0  0
  -14.0480   -0.8208  -24.2761 H   0  0  0  0  0  0  0  0  0  0  0  0
  -10.8749   -1.1063  -21.4246 H   0  0  0  0  0  0  0  0  0  0  0  0
   -7.8534   -0.1659  -24.5791 H   0  0  0  0  0  0  0  0  0  0  0  0
   -6.9274   -1.6618  -24.3825 H   0  0  0  0  0  0  0  0  0  0  0  0
   -6.7796   -1.6059  -26.8640 H   0  0  0  0  0  0  0  0  0  0  0  0
   -8.2665   -2.0544  -27.7483 H   0  0  0  0  0  0  0  0  0  0  0  0
   -9.1732   -4.2617  -27.2694 H   0  0  0  0  0  0  0  0  0  0  0  0
   -7.7502   -6.2077  -25.7533 H   0  0  0  0  0  0  0  0  0  0  0  0
   -7.1644   -6.3451  -27.4194 H   0  0  0  0  0  0  0  0  0  0  0  0
   -8.9016   -6.5719  -27.0716 H   0  0  0  0  0  0  0  0  0  0  0  0
  1  2  1  0
  2  3  1  0
  3  4  2  0
  3  5  1  0
  5  6  1  0
  6  7  1  0
  8  7  1  6
  8  9  1  0
  9 10  2  0
  9 11  1  0
 11 12  1  0
 12 13  2  0
 13 14  1  0
 14 15  2  0
 15 16  1  0
 16 17  2  0
 17 18  1  0
 18 19  2  0
 19 20  1  0
 20 21  2  0
 20 22  1  0
 19 23  1  0
 18 24  1  0
 17 25  1  0
 15 26  1  0
 13 27  1  0
 11 28  1  0
 28 29  1  0
 29 30  1  0
 30 31  1  0
 31 32  1  0
 32 33  2  0
 33 34  1  0
 34 35  1  0
 30 36  1  0
 30 37  1  0
 29 38  1  1
 28 39  1  0
 28 40  1  0
  8 41  1  0
 41 42  2  0
 42 43  1  0
 43 44  1  0
 43 45  2  0
 45 46  1  0
 46 47  2  0
 47 48  1  0
 48 49  2  0
 46 50  1  0
 45 51  1  0
 42 52  1  0
  7 53  1  0
  7 54  1  0
  5 55  1  0
  5 56  1  0
  2 57  1  0
  1 58  1  0
  1 59  1  0
  1 60  1  0
 48  6  1  0
 29  8  1  0
 35 31  2  0
 47 41  1  0
 21 12  1  0
 21 16  1  0
M  CHG  1  34  -1
M  END
>  <cnnaffinities>  (57) 
[6.83926, 7.1426, 7.1784, 7.14167]

>  <score>  (57) 
6.83926

>  <index>  (57) 
59

>  <Smiles>  (57) 
C(N(C(=O)C(N1C([C@@]2(C(=O)N(c3c(nc(c4c(c(c(c(c34)[H])[H])[H])[H])[H])[H])C([C@@]2(C(c2nn[n-]n2)([H])[H])[H])([H])[H])c2c(c(Cl)c(c(c2C1=O)[H])[H])[H])([H])[H])([H])[H])[H])([H])([H])[H]

>  <h>  (57) 
<NA>

>  <Training>  (57) 
True

>  <Success>  (57) 
True

>  <enamine_searched>  (57) 
False

>  <enamine_id>  (57) 
nan

$$$$

     RDKit          3D

 62 67  0  0  0  0  0  0  0  0999 V2000
  -11.6479    3.1748  -22.7165 C   0  0  0  0  0  0  0  0  0  0  0  0
  -10.8252    1.9287  -22.4106 C   0  0  0  0  0  0  0  0  0  0  0  0
   -9.4882    1.9640  -22.9787 N   0  0  0  0  0  0  0  0  0  0  0  0
   -8.5208    2.5380  -22.2416 N   0  0  0  0  0  0  0  0  0  0  0  0
   -7.4288    2.4967  -22.9923 C   0  0  0  0  0  0  0  0  0  0  0  0
   -7.6946    1.8979  -24.2444 C   0  0  0  0  0  0  0  0  0  0  0  0
   -9.0366    1.5710  -24.2022 C   0  0  0  0  0  0  0  0  0  0  0  0
   -9.8690    0.8107  -25.1971 C   0  0  0  0  0  0  0  0  0  0  0  0
  -10.3384   -0.4467  -24.6264 N   0  0  0  0  0  0  0  0  0  0  0  0
   -9.3444   -1.4583  -24.3028 C   0  0  0  0  0  0  0  0  0  0  0  0
   -9.5499   -2.1134  -22.9130 C   0  0  2  0  0  0  0  0  0  0  0  0
   -8.9104   -1.2652  -21.7636 C   0  0  0  0  0  0  0  0  0  0  0  0
   -9.4536   -0.4372  -21.0659 O   0  0  0  0  0  0  0  0  0  0  0  0
   -7.5898   -1.6466  -21.6345 N   0  0  0  0  0  0  0  0  0  0  0  0
   -6.7711   -1.3164  -20.5352 C   0  0  0  0  0  0  0  0  0  0  0  0
   -7.0566   -1.7549  -19.2661 C   0  0  0  0  0  0  0  0  0  0  0  0
   -6.2155   -1.5886  -18.2180 N   0  0  0  0  0  0  0  0  0  0  0  0
   -5.0657   -0.9954  -18.4250 C   0  0  0  0  0  0  0  0  0  0  0  0
   -4.6366   -0.5316  -19.7015 C   0  0  0  0  0  0  0  0  0  0  0  0
   -3.3727    0.0703  -19.9217 C   0  0  0  0  0  0  0  0  0  0  0  0
   -3.0008    0.4595  -21.1775 C   0  0  0  0  0  0  0  0  0  0  0  0
   -3.8584    0.2564  -22.2795 C   0  0  0  0  0  0  0  0  0  0  0  0
   -5.0842   -0.3268  -22.0927 C   0  0  0  0  0  0  0  0  0  0  0  0
   -5.5043   -0.7166  -20.7957 C   0  0  0  0  0  0  0  0  0  0  0  0
   -5.7453   -0.5034  -22.9340 H   0  0  0  0  0  0  0  0  0  0  0  0
   -3.5345    0.5302  -23.2775 H   0  0  0  0  0  0  0  0  0  0  0  0
   -2.0411    0.9359  -21.3402 H   0  0  0  0  0  0  0  0  0  0  0  0
   -2.7157    0.2177  -19.0724 H   0  0  0  0  0  0  0  0  0  0  0  0
   -4.4109   -0.8533  -17.5611 H   0  0  0  0  0  0  0  0  0  0  0  0
   -7.9894   -2.2774  -19.0474 H   0  0  0  0  0  0  0  0  0  0  0  0
   -7.2581   -2.8239  -22.4066 C   0  0  0  0  0  0  0  0  0  0  0  0
   -8.6430   -3.3777  -22.7574 C   0  0  2  0  0  0  0  0  0  0  0  0
   -8.6119   -4.3996  -23.8822 C   0  0  0  0  0  0  0  0  0  0  0  0
   -9.6139   -4.7624  -24.1350 H   0  0  0  0  0  0  0  0  0  0  0  0
   -8.0006   -5.2616  -23.5910 H   0  0  0  0  0  0  0  0  0  0  0  0
   -8.1615   -3.9839  -24.7912 H   0  0  0  0  0  0  0  0  0  0  0  0
   -8.9875   -3.8648  -21.8392 H   0  0  0  0  0  0  0  0  0  0  0  0
   -6.6615   -2.5930  -23.3056 H   0  0  0  0  0  0  0  0  0  0  0  0
   -6.6700   -3.5181  -21.7978 H   0  0  0  0  0  0  0  0  0  0  0  0
  -11.0368   -2.3301  -22.6873 C   0  0  0  0  0  0  0  0  0  0  0  0
  -11.4696   -3.2118  -21.6874 C   0  0  0  0  0  0  0  0  0  0  0  0
  -12.8022   -3.2641  -21.3384 C   0  0  0  0  0  0  0  0  0  0  0  0
  -13.1693   -4.0833  -20.3369 F   0  0  0  0  0  0  0  0  0  0  0  0
  -13.7769   -2.5049  -21.9675 C   0  0  0  0  0  0  0  0  0  0  0  0
  -13.3767   -1.6797  -23.0036 C   0  0  0  0  0  0  0  0  0  0  0  0
  -12.0315   -1.6128  -23.3777 C   0  0  0  0  0  0  0  0  0  0  0  0
  -11.6788   -0.6817  -24.4945 C   0  0  0  0  0  0  0  0  0  0  0  0
  -12.5345   -0.1041  -25.1606 O   0  0  0  0  0  0  0  0  0  0  0  0
  -14.1018   -1.0745  -23.5374 H   0  0  0  0  0  0  0  0  0  0  0  0
  -14.8051   -2.5947  -21.6373 H   0  0  0  0  0  0  0  0  0  0  0  0
  -10.7850   -3.8698  -21.1655 H   0  0  0  0  0  0  0  0  0  0  0  0
   -9.3695   -2.2434  -25.0694 H   0  0  0  0  0  0  0  0  0  0  0  0
   -8.3593   -0.9884  -24.3543 H   0  0  0  0  0  0  0  0  0  0  0  0
   -9.2504    0.6270  -26.0874 H   0  0  0  0  0  0  0  0  0  0  0  0
  -10.7430    1.3772  -25.5367 H   0  0  0  0  0  0  0  0  0  0  0  0
   -7.0065    1.6798  -25.0514 H   0  0  0  0  0  0  0  0  0  0  0  0
   -6.5119    2.9163  -22.5981 H   0  0  0  0  0  0  0  0  0  0  0  0
  -11.3479    1.0329  -22.7579 H   0  0  0  0  0  0  0  0  0  0  0  0
  -10.6730    1.8020  -21.3387 H   0  0  0  0  0  0  0  0  0  0  0  0
  -12.0105    3.1585  -23.7509 H   0  0  0  0  0  0  0  0  0  0  0  0
  -11.0602    4.0848  -22.5622 H   0  0  0  0  0  0  0  0  0  0  0  0
  -12.5222    3.2222  -22.0581 H   0  0  0  0  0  0  0  0  0  0  0  0
  1  2  1  0
  2  3  1  0
  3  4  1  0
  4  5  2  0
  5  6  1  0
  6  7  2  0
  7  8  1  0
  8  9  1  0
  9 10  1  0
 11 10  1  6
 11 12  1  0
 12 13  2  0
 12 14  1  0
 14 15  1  0
 15 16  2  0
 16 17  1  0
 17 18  2  0
 18 19  1  0
 19 20  2  0
 20 21  1  0
 21 22  2  0
 22 23  1  0
 23 24  2  0
 23 25  1  0
 22 26  1  0
 21 27  1  0
 20 28  1  0
 18 29  1  0
 16 30  1  0
 14 31  1  0
 31 32  1  0
 32 33  1  0
 33 34  1  0
 33 35  1  0
 33 36  1  0
 32 37  1  1
 31 38  1  0
 31 39  1  0
 11 40  1  0
 40 41  2  0
 41 42  1  0
 42 43  1  0
 42 44  2  0
 44 45  1  0
 45 46  2  0
 46 47  1  0
 47 48  2  0
 45 49  1  0
 44 50  1  0
 41 51  1  0
 10 52  1  0
 10 53  1  0
  8 54  1  0
  8 55  1  0
  6 56  1  0
  5 57  1  0
  2 58  1  0
  2 59  1  0
  1 60  1  0
  1 61  1  0
  1 62  1  0
  7  3  1  0
 47  9  1  0
 32 11  1  0
 46 40  1  0
 24 15  1  0
 24 19  1  0
M  END
>  <cnnaffinities>  (58) 
[6.74488, 6.97847]

>  <score>  (58) 
6.74488

>  <index>  (58) 
60

>  <Smiles>  (58) 
C(C(n1nc(c(c1C(N1C([C@@]2(C(=O)N(c3c(nc(c4c(c(c(c(c34)[H])[H])[H])[H])[H])[H])C([C@@]2(C([H])([H])[H])[H])([H])[H])c2c(c(F)c(c(c2C1=O)[H])[H])[H])([H])[H])([H])[H])[H])[H])([H])[H])([H])([H])[H]

>  <h>  (58) 
<NA>

>  <Training>  (58) 
True

>  <Success>  (58) 
True

>  <enamine_searched>  (58) 
False

>  <enamine_id>  (58) 
nan

$$$$

     RDKit          3D

 44 47  0  0  0  0  0  0  0  0999 V2000
   -8.9497    0.4317  -21.0921 O   0  0  0  0  0  0  0  0  0  0  0  0
   -8.3238   -0.2918  -21.8469 C   0  0  0  0  0  0  0  0  0  0  0  0
   -7.4625   -1.4400  -21.3007 C   0  0  0  0  0  0  0  0  0  0  0  0
   -6.4889   -1.0124  -20.2218 C   0  0  0  0  0  0  0  0  0  0  0  0
   -6.7378   -1.2720  -18.9034 C   0  0  0  0  0  0  0  0  0  0  0  0
   -5.9132   -0.9838  -17.8613 N   0  0  0  0  0  0  0  0  0  0  0  0
   -4.7875   -0.3827  -18.1544 C   0  0  0  0  0  0  0  0  0  0  0  0
   -4.4287    0.0298  -19.4662 C   0  0  0  0  0  0  0  0  0  0  0  0
   -3.2741    0.8179  -19.7136 C   0  0  0  0  0  0  0  0  0  0  0  0
   -3.0424    1.3426  -20.9570 C   0  0  0  0  0  0  0  0  0  0  0  0
   -3.9002    1.0074  -22.0244 C   0  0  0  0  0  0  0  0  0  0  0  0
   -4.9899    0.2005  -21.8321 C   0  0  0  0  0  0  0  0  0  0  0  0
   -5.2983   -0.2926  -20.5347 C   0  0  0  0  0  0  0  0  0  0  0  0
   -5.6602   -0.0272  -22.6601 H   0  0  0  0  0  0  0  0  0  0  0  0
   -3.7273    1.4425  -23.0059 H   0  0  0  0  0  0  0  0  0  0  0  0
   -2.2281    2.0421  -21.1194 H   0  0  0  0  0  0  0  0  0  0  0  0
   -2.6126    1.0369  -18.8798 H   0  0  0  0  0  0  0  0  0  0  0  0
   -4.1118   -0.1473  -17.3297 H   0  0  0  0  0  0  0  0  0  0  0  0
   -7.6813   -1.7397  -18.6293 H   0  0  0  0  0  0  0  0  0  0  0  0
   -6.9171   -1.9048  -22.1279 H   0  0  0  0  0  0  0  0  0  0  0  0
   -8.1646   -2.1762  -20.8887 H   0  0  0  0  0  0  0  0  0  0  0  0
   -8.3562   -0.1162  -23.2193 N   0  0  0  0  0  0  0  0  0  0  0  0
   -8.0637   -1.1522  -24.2039 C   0  0  0  0  0  0  0  0  0  0  0  0
   -8.9457   -0.9817  -25.4410 C   0  0  0  0  0  0  0  0  0  0  0  0
   -8.8384    0.4209  -26.0306 C   0  0  0  0  0  0  0  0  0  0  0  0
   -9.6491    0.6283  -27.3298 C   0  0  0  0  0  0  0  0  0  0  0  0
   -8.3548    0.8993  -28.1236 C   0  0  0  0  0  0  0  0  0  0  0  0
   -7.5385    0.6979  -26.8306 C   0  0  0  0  0  0  0  0  0  0  0  0
   -6.9912    1.5835  -26.4981 H   0  0  0  0  0  0  0  0  0  0  0  0
   -6.8497   -0.1500  -26.8589 H   0  0  0  0  0  0  0  0  0  0  0  0
   -8.1442    0.1700  -28.9094 H   0  0  0  0  0  0  0  0  0  0  0  0
   -8.2898    1.9041  -28.5489 H   0  0  0  0  0  0  0  0  0  0  0  0
  -10.2154   -0.2466  -27.6571 H   0  0  0  0  0  0  0  0  0  0  0  0
  -10.3274    1.4821  -27.2822 H   0  0  0  0  0  0  0  0  0  0  0  0
   -9.1636    1.4447  -24.9470 C   0  0  0  0  0  0  0  0  0  0  0  0
   -8.3021    1.2575  -23.7108 C   0  0  0  0  0  0  0  0  0  0  0  0
   -7.2576    1.5404  -23.9355 H   0  0  0  0  0  0  0  0  0  0  0  0
   -8.6411    1.8946  -22.8920 H   0  0  0  0  0  0  0  0  0  0  0  0
   -9.0422    2.4659  -25.3290 H   0  0  0  0  0  0  0  0  0  0  0  0
  -10.2209    1.3418  -24.6773 H   0  0  0  0  0  0  0  0  0  0  0  0
   -8.6897   -1.7387  -26.1918 H   0  0  0  0  0  0  0  0  0  0  0  0
   -9.9902   -1.1653  -25.1665 H   0  0  0  0  0  0  0  0  0  0  0  0
   -7.0026   -1.1289  -24.5050 H   0  0  0  0  0  0  0  0  0  0  0  0
   -8.2511   -2.1313  -23.7557 H   0  0  0  0  0  0  0  0  0  0  0  0
  1  2  2  0
  2  3  1  0
  3  4  1  0
  4  5  2  0
  5  6  1  0
  6  7  2  0
  7  8  1  0
  8  9  2  0
  9 10  1  0
 10 11  2  0
 11 12  1  0
 12 13  2  0
 12 14  1  0
 11 15  1  0
 10 16  1  0
  9 17  1  0
  7 18  1  0
  5 19  1  0
  3 20  1  0
  3 21  1  0
  2 22  1  0
 22 23  1  0
 23 24  1  0
 24 25  1  0
 25 26  1  0
 26 27  1  0
 27 28  1  0
 28 29  1  0
 28 30  1  0
 27 31  1  0
 27 32  1  0
 26 33  1  0
 26 34  1  0
 25 35  1  0
 35 36  1  0
 36 37  1  0
 36 38  1  0
 35 39  1  0
 35 40  1  0
 24 41  1  0
 24 42  1  0
 23 43  1  0
 23 44  1  0
 13  4  1  0
 36 22  1  0
 13  8  1  0
 28 25  1  0
M  END
>  <cnnaffinities>  (59) 
[4.99301, 5.10351, 5.10361, 5.10345, 5.10354, 5.40463]

>  <score>  (59) 
4.99301

>  <index>  (59) 
61

>  <Smiles>  (59) 
O=C(C(c1c(nc(c2c(c(c(c(c12)[H])[H])[H])[H])[H])[H])([H])[H])N1C(C(C2(C(C(C2([H])[H])([H])[H])([H])[H])C(C1([H])[H])([H])[H])([H])[H])([H])[H]

>  <h>  (59) 
<NA>

>  <Training>  (59) 
True

>  <Success>  (59) 
True

>  <enamine_searched>  (59) 
False

>  <enamine_id>  (59) 
nan

$$$$

     RDKit          3D

 44 47  0  0  0  0  0  0  0  0999 V2000
   -5.5826   -3.1256  -21.5943 O   0  0  0  0  0  0  0  0  0  0  0  0
   -6.7640   -2.8725  -21.7744 C   0  0  0  0  0  0  0  0  0  0  0  0
   -7.3770   -1.5465  -21.2832 C   0  0  0  0  0  0  0  0  0  0  0  0
   -6.4952   -0.9862  -20.2130 C   0  0  0  0  0  0  0  0  0  0  0  0
   -6.7461   -1.2722  -18.8969 C   0  0  0  0  0  0  0  0  0  0  0  0
   -5.9168   -0.9929  -17.8599 N   0  0  0  0  0  0  0  0  0  0  0  0
   -4.7889   -0.3921  -18.1518 C   0  0  0  0  0  0  0  0  0  0  0  0
   -4.4345    0.0281  -19.4612 C   0  0  0  0  0  0  0  0  0  0  0  0
   -3.2726    0.7993  -19.7107 C   0  0  0  0  0  0  0  0  0  0  0  0
   -3.0307    1.3021  -20.9607 C   0  0  0  0  0  0  0  0  0  0  0  0
   -3.8843    0.9648  -22.0308 C   0  0  0  0  0  0  0  0  0  0  0  0
   -4.9855    0.1734  -21.8315 C   0  0  0  0  0  0  0  0  0  0  0  0
   -5.3008   -0.2887  -20.5274 C   0  0  0  0  0  0  0  0  0  0  0  0
   -5.6187   -0.1085  -22.6648 H   0  0  0  0  0  0  0  0  0  0  0  0
   -3.7001    1.3828  -23.0161 H   0  0  0  0  0  0  0  0  0  0  0  0
   -2.1967    1.9757  -21.1304 H   0  0  0  0  0  0  0  0  0  0  0  0
   -2.6195    1.0182  -18.8727 H   0  0  0  0  0  0  0  0  0  0  0  0
   -4.0909   -0.1815  -17.3393 H   0  0  0  0  0  0  0  0  0  0  0  0
   -7.6728   -1.7787  -18.6309 H   0  0  0  0  0  0  0  0  0  0  0  0
   -8.3772   -1.7360  -20.8711 H   0  0  0  0  0  0  0  0  0  0  0  0
   -7.5035   -0.8544  -22.1259 H   0  0  0  0  0  0  0  0  0  0  0  0
   -7.5920   -3.7847  -22.3696 N   0  0  0  0  0  0  0  0  0  0  0  0
   -7.2050   -5.1863  -22.2340 C   0  0  0  0  0  0  0  0  0  0  0  0
   -7.4693   -5.9590  -23.5027 C   0  0  0  0  0  0  0  0  0  0  0  0
   -8.9330   -5.7862  -23.8950 C   0  0  0  0  0  0  0  0  0  0  0  0
   -9.2453   -6.6428  -25.1055 C   0  0  0  0  0  0  0  0  0  0  0  0
  -10.6577   -6.8893  -25.5521 C   0  0  0  0  0  0  0  0  0  0  0  0
   -9.7200   -6.0867  -26.4135 C   0  0  0  0  0  0  0  0  0  0  0  0
   -9.8791   -5.0158  -26.5146 H   0  0  0  0  0  0  0  0  0  0  0  0
   -9.3711   -6.5839  -27.3140 H   0  0  0  0  0  0  0  0  0  0  0  0
  -10.8655   -7.8818  -25.9413 H   0  0  0  0  0  0  0  0  0  0  0  0
  -11.4858   -6.4002  -25.0349 H   0  0  0  0  0  0  0  0  0  0  0  0
   -8.6073   -7.5193  -25.1972 H   0  0  0  0  0  0  0  0  0  0  0  0
   -9.2594   -4.2982  -24.0678 C   0  0  0  0  0  0  0  0  0  0  0  0
   -8.9645   -3.5243  -22.7919 C   0  0  0  0  0  0  0  0  0  0  0  0
   -9.6933   -3.8074  -22.0143 H   0  0  0  0  0  0  0  0  0  0  0  0
   -9.0992   -2.4540  -22.9687 H   0  0  0  0  0  0  0  0  0  0  0  0
   -8.6518   -3.8844  -24.8813 H   0  0  0  0  0  0  0  0  0  0  0  0
  -10.3071   -4.1529  -24.3560 H   0  0  0  0  0  0  0  0  0  0  0  0
   -9.5181   -6.1538  -23.0369 H   0  0  0  0  0  0  0  0  0  0  0  0
   -7.2442   -7.0201  -23.3305 H   0  0  0  0  0  0  0  0  0  0  0  0
   -6.8165   -5.6251  -24.3145 H   0  0  0  0  0  0  0  0  0  0  0  0
   -6.1592   -5.2146  -21.9325 H   0  0  0  0  0  0  0  0  0  0  0  0
   -7.7829   -5.6668  -21.4350 H   0  0  0  0  0  0  0  0  0  0  0  0
  1  2  2  0
  2  3  1  0
  3  4  1  0
  4  5  2  0
  5  6  1  0
  6  7  2  0
  7  8  1  0
  8  9  2  0
  9 10  1  0
 10 11  2  0
 11 12  1  0
 12 13  2  0
 12 14  1  0
 11 15  1  0
 10 16  1  0
  9 17  1  0
  7 18  1  0
  5 19  1  0
  3 20  1  0
  3 21  1  0
  2 22  1  0
 22 23  1  0
 23 24  1  0
 24 25  1  0
 25 26  1  0
 26 27  1  0
 27 28  1  0
 28 29  1  0
 28 30  1  0
 27 31  1  0
 27 32  1  0
 26 33  1  0
 25 34  1  0
 34 35  1  0
 35 36  1  0
 35 37  1  0
 34 38  1  0
 34 39  1  0
 25 40  1  0
 24 41  1  0
 24 42  1  0
 23 43  1  0
 23 44  1  0
 13  4  1  0
 35 22  1  0
 13  8  1  0
 28 26  1  0
M  END
>  <cnnaffinities>  (60) 
[5.37309, 5.58706, 5.1128, 5.10913]

>  <score>  (60) 
5.37309

>  <index>  (60) 
62

>  <Smiles>  (60) 
O=C(C(c1c(nc(c2c(c(c(c(c12)[H])[H])[H])[H])[H])[H])([H])[H])N1C(C(C(C2(C(C2([H])[H])([H])[H])[H])(C(C1([H])[H])([H])[H])[H])([H])[H])([H])[H]

>  <h>  (60) 
<NA>

>  <Training>  (60) 
True

>  <Success>  (60) 
True

>  <enamine_searched>  (60) 
False

>  <enamine_id>  (60) 
nan

$$$$

     RDKit          3D

 57 61  0  0  0  0  0  0  0  0999 V2000
   -7.2969    3.4039  -21.9021 C   0  0  0  0  0  0  0  0  0  0  0  0
   -8.1722    2.9598  -22.9773 N   0  0  0  0  0  0  0  0  0  0  0  0
   -7.6106    2.2333  -23.9866 C   0  0  0  0  0  0  0  0  0  0  0  0
   -6.4051    2.0563  -24.0817 O   0  0  0  0  0  0  0  0  0  0  0  0
   -8.5830    1.6387  -25.0072 C   0  0  0  0  0  0  0  0  0  0  0  0
   -9.2987    0.5128  -24.4370 N   0  0  0  0  0  0  0  0  0  0  0  0
   -8.5832   -0.7376  -24.2462 C   0  0  0  0  0  0  0  0  0  0  0  0
   -9.0125   -1.4532  -22.9412 C   0  0  2  0  0  0  0  0  0  0  0  0
   -8.4636   -0.6954  -21.7063 C   0  0  0  0  0  0  0  0  0  0  0  0
   -8.8683    0.3494  -21.2431 O   0  0  0  0  0  0  0  0  0  0  0  0
   -7.4012   -1.4135  -21.2097 N   0  0  0  0  0  0  0  0  0  0  0  0
   -6.5259   -0.9460  -20.2024 C   0  0  0  0  0  0  0  0  0  0  0  0
   -6.7757   -1.2518  -18.8959 C   0  0  0  0  0  0  0  0  0  0  0  0
   -5.9188   -0.9967  -17.8759 N   0  0  0  0  0  0  0  0  0  0  0  0
   -4.7936   -0.3935  -18.1693 C   0  0  0  0  0  0  0  0  0  0  0  0
   -4.4410    0.0342  -19.4810 C   0  0  0  0  0  0  0  0  0  0  0  0
   -3.2764    0.7965  -19.7394 C   0  0  0  0  0  0  0  0  0  0  0  0
   -3.0568    1.3246  -20.9841 C   0  0  0  0  0  0  0  0  0  0  0  0
   -3.9356    1.0250  -22.0527 C   0  0  0  0  0  0  0  0  0  0  0  0
   -5.0368    0.2371  -21.8416 C   0  0  0  0  0  0  0  0  0  0  0  0
   -5.3285   -0.2523  -20.5413 C   0  0  0  0  0  0  0  0  0  0  0  0
   -5.6979   -0.0006  -22.6712 H   0  0  0  0  0  0  0  0  0  0  0  0
   -3.7679    1.4608  -23.0326 H   0  0  0  0  0  0  0  0  0  0  0  0
   -2.2124    1.9843  -21.1533 H   0  0  0  0  0  0  0  0  0  0  0  0
   -2.6225    1.0116  -18.9001 H   0  0  0  0  0  0  0  0  0  0  0  0
   -4.0964   -0.1884  -17.3555 H   0  0  0  0  0  0  0  0  0  0  0  0
   -7.7114   -1.7508  -18.6479 H   0  0  0  0  0  0  0  0  0  0  0  0
   -7.0756   -2.6126  -21.9399 C   0  0  0  0  0  0  0  0  0  0  0  0
   -8.3201   -2.8403  -22.8097 C   0  0  2  0  0  0  0  0  0  0  0  0
   -7.9655   -3.5675  -24.0956 C   0  0  0  0  0  0  0  0  0  0  0  0
   -7.4575   -4.8306  -23.7141 O   0  0  0  0  0  0  0  0  0  0  0  0
   -7.2064   -5.3031  -24.5150 H   0  0  0  0  0  0  0  0  0  0  0  0
   -7.2026   -2.9907  -24.6427 H   0  0  0  0  0  0  0  0  0  0  0  0
   -8.8476   -3.6641  -24.7471 H   0  0  0  0  0  0  0  0  0  0  0  0
   -8.9899   -3.5045  -22.2630 H   0  0  0  0  0  0  0  0  0  0  0  0
   -6.9047   -3.4327  -21.2376 H   0  0  0  0  0  0  0  0  0  0  0  0
   -6.1602   -2.4945  -22.5456 H   0  0  0  0  0  0  0  0  0  0  0  0
  -10.5262   -1.4771  -22.8848 C   0  0  0  0  0  0  0  0  0  0  0  0
  -11.1818   -2.3432  -22.0050 C   0  0  0  0  0  0  0  0  0  0  0  0
  -12.5612   -2.3394  -21.9259 C   0  0  0  0  0  0  0  0  0  0  0  0
  -13.3413   -3.4190  -20.8119 Cl  0  0  0  0  0  0  0  0  0  0  0  0
  -13.3404   -1.4770  -22.6965 C   0  0  0  0  0  0  0  0  0  0  0  0
  -12.6942   -0.5832  -23.5238 C   0  0  0  0  0  0  0  0  0  0  0  0
  -11.3028   -0.5563  -23.5969 C   0  0  0  0  0  0  0  0  0  0  0  0
  -10.6666    0.5479  -24.3876 C   0  0  0  0  0  0  0  0  0  0  0  0
  -11.3253    1.4317  -24.9130 O   0  0  0  0  0  0  0  0  0  0  0  0
  -13.2439    0.1400  -24.1124 H   0  0  0  0  0  0  0  0  0  0  0  0
  -14.4223   -1.4907  -22.6136 H   0  0  0  0  0  0  0  0  0  0  0  0
  -10.6268   -3.0103  -21.3546 H   0  0  0  0  0  0  0  0  0  0  0  0
   -7.5069   -0.5329  -24.2284 H   0  0  0  0  0  0  0  0  0  0  0  0
   -8.7828   -1.4052  -25.0951 H   0  0  0  0  0  0  0  0  0  0  0  0
   -8.0031    1.3182  -25.8798 H   0  0  0  0  0  0  0  0  0  0  0  0
   -9.3292    2.3708  -25.3306 H   0  0  0  0  0  0  0  0  0  0  0  0
   -9.1454    2.8028  -22.7436 H   0  0  0  0  0  0  0  0  0  0  0  0
   -6.5937    4.1533  -22.2777 H   0  0  0  0  0  0  0  0  0  0  0  0
   -7.8914    3.8675  -21.1122 H   0  0  0  0  0  0  0  0  0  0  0  0
   -6.7230    2.5561  -21.4967 H   0  0  0  0  0  0  0  0  0  0  0  0
  1  2  1  0
  2  3  1  0
  3  4  2  0
  3  5  1  0
  5  6  1  0
  6  7  1  0
  8  7  1  6
  8  9  1  0
  9 10  2  0
  9 11  1  0
 11 12  1  0
 12 13  2  0
 13 14  1  0
 14 15  2  0
 15 16  1  0
 16 17  2  0
 17 18  1  0
 18 19  2  0
 19 20  1  0
 20 21  2  0
 20 22  1  0
 19 23  1  0
 18 24  1  0
 17 25  1  0
 15 26  1  0
 13 27  1  0
 11 28  1  0
 28 29  1  0
 29 30  1  0
 30 31  1  0
 31 32  1  0
 30 33  1  0
 30 34  1  0
 29 35  1  1
 28 36  1  0
 28 37  1  0
  8 38  1  0
 38 39  2  0
 39 40  1  0
 40 41  1  0
 40 42  2  0
 42 43  1  0
 43 44  2  0
 44 45  1  0
 45 46  2  0
 43 47  1  0
 42 48  1  0
 39 49  1  0
  7 50  1  0
  7 51  1  0
  5 52  1  0
  5 53  1  0
  2 54  1  0
  1 55  1  0
  1 56  1  0
  1 57  1  0
 45  6  1  0
 29  8  1  0
 44 38  1  0
 21 12  1  0
 21 16  1  0
M  END
>  <cnnaffinities>  (61) 
[6.37354]

>  <score>  (61) 
6.37354

>  <index>  (61) 
63

>  <Smiles>  (61) 
C(N(C(=O)C(N1C([C@@]2(C(=O)N(c3c(nc(c4c(c(c(c(c34)[H])[H])[H])[H])[H])[H])C([C@@]2(C(O[H])([H])[H])[H])([H])[H])c2c(c(Cl)c(c(c2C1=O)[H])[H])[H])([H])[H])([H])[H])[H])([H])([H])[H]

>  <h>  (61) 
<NA>

>  <Training>  (61) 
True

>  <Success>  (61) 
True

>  <enamine_searched>  (61) 
False

>  <enamine_id>  (61) 
nan

$$$$

     RDKit          3D

 55 60  0  0  0  0  0  0  0  0999 V2000
   -7.9316   -3.6370  -24.0444 C   0  0  0  0  0  0  0  0  0  0  0  0
   -8.3133   -2.8454  -22.8007 C   0  0  1  0  0  0  0  0  0  0  0  0
   -7.1028   -2.6435  -21.8826 C   0  0  0  0  0  0  0  0  0  0  0  0
   -7.4041   -1.4214  -21.1838 N   0  0  0  0  0  0  0  0  0  0  0  0
   -6.5140   -0.9557  -20.1872 C   0  0  0  0  0  0  0  0  0  0  0  0
   -6.7555   -1.2597  -18.8767 C   0  0  0  0  0  0  0  0  0  0  0  0
   -5.9002   -0.9952  -17.8592 N   0  0  0  0  0  0  0  0  0  0  0  0
   -4.7766   -0.3910  -18.1540 C   0  0  0  0  0  0  0  0  0  0  0  0
   -4.4287    0.0246  -19.4693 C   0  0  0  0  0  0  0  0  0  0  0  0
   -3.2639    0.7890  -19.7245 C   0  0  0  0  0  0  0  0  0  0  0  0
   -3.0320    1.2981  -20.9724 C   0  0  0  0  0  0  0  0  0  0  0  0
   -3.9009    0.9844  -22.0434 C   0  0  0  0  0  0  0  0  0  0  0  0
   -5.0012    0.1903  -21.8337 C   0  0  0  0  0  0  0  0  0  0  0  0
   -5.3144   -0.2646  -20.5266 C   0  0  0  0  0  0  0  0  0  0  0  0
   -5.6495   -0.0696  -22.6665 H   0  0  0  0  0  0  0  0  0  0  0  0
   -3.7131    1.3973  -23.0295 H   0  0  0  0  0  0  0  0  0  0  0  0
   -2.1774    1.9473  -21.1458 H   0  0  0  0  0  0  0  0  0  0  0  0
   -2.6218    1.0185  -18.8792 H   0  0  0  0  0  0  0  0  0  0  0  0
   -4.0679   -0.1902  -17.3469 H   0  0  0  0  0  0  0  0  0  0  0  0
   -7.6858   -1.7685  -18.6311 H   0  0  0  0  0  0  0  0  0  0  0  0
   -8.3738   -0.6436  -21.7787 C   0  0  0  0  0  0  0  0  0  0  0  0
   -8.7053    0.4531  -21.3888 O   0  0  0  0  0  0  0  0  0  0  0  0
   -8.9269   -1.4225  -23.0062 C   0  0  1  0  0  0  0  0  0  0  0  0
   -8.4127   -0.7881  -24.3281 C   0  0  0  0  0  0  0  0  0  0  0  0
   -9.0621    0.4713  -24.6415 N   0  0  0  0  0  0  0  0  0  0  0  0
   -8.2826    1.6432  -25.0135 C   0  0  0  0  0  0  0  0  0  0  0  0
   -8.0198    2.5255  -23.8235 C   0  0  0  0  0  0  0  0  0  0  0  0
   -6.8344    2.5153  -23.1446 N   0  0  0  0  0  0  0  0  0  0  0  0
   -7.0466    3.3834  -22.1756 C   0  0  0  0  0  0  0  0  0  0  0  0
   -8.2795    3.9057  -22.2854 N   0  0  0  0  0  0  0  0  0  0  0  0
   -8.9208    3.3534  -23.3368 N   0  0  0  0  0  0  0  0  0  0  0  0
   -8.7922    4.4709  -21.6210 H   0  0  0  0  0  0  0  0  0  0  0  0
   -6.3438    3.6850  -21.4161 H   0  0  0  0  0  0  0  0  0  0  0  0
   -8.8422    2.1942  -25.7763 H   0  0  0  0  0  0  0  0  0  0  0  0
   -7.3320    1.3165  -25.4469 H   0  0  0  0  0  0  0  0  0  0  0  0
  -10.4261    0.5943  -24.6017 C   0  0  0  0  0  0  0  0  0  0  0  0
  -11.0187    1.5056  -25.1668 O   0  0  0  0  0  0  0  0  0  0  0  0
  -11.1469   -0.4354  -23.7904 C   0  0  0  0  0  0  0  0  0  0  0  0
  -12.5420   -0.3804  -23.7709 C   0  0  0  0  0  0  0  0  0  0  0  0
  -13.2747   -1.2150  -22.9541 C   0  0  0  0  0  0  0  0  0  0  0  0
  -12.5669   -2.0925  -22.1424 C   0  0  0  0  0  0  0  0  0  0  0  0
  -13.2576   -2.8885  -21.3120 F   0  0  0  0  0  0  0  0  0  0  0  0
  -11.1890   -2.1759  -22.1469 C   0  0  0  0  0  0  0  0  0  0  0  0
  -10.4465   -1.3669  -23.0133 C   0  0  0  0  0  0  0  0  0  0  0  0
  -10.7123   -2.8609  -21.4557 H   0  0  0  0  0  0  0  0  0  0  0  0
  -14.3586   -1.1769  -22.9103 H   0  0  0  0  0  0  0  0  0  0  0  0
  -13.0309    0.3540  -24.3972 H   0  0  0  0  0  0  0  0  0  0  0  0
   -7.3290   -0.6243  -24.2680 H   0  0  0  0  0  0  0  0  0  0  0  0
   -8.6026   -1.4938  -25.1463 H   0  0  0  0  0  0  0  0  0  0  0  0
   -6.1603   -2.5726  -22.4543 H   0  0  0  0  0  0  0  0  0  0  0  0
   -6.9913   -3.4562  -21.1597 H   0  0  0  0  0  0  0  0  0  0  0  0
   -9.0446   -3.4381  -22.2472 H   0  0  0  0  0  0  0  0  0  0  0  0
   -7.1245   -3.1351  -24.5902 H   0  0  0  0  0  0  0  0  0  0  0  0
   -8.7792   -3.7747  -24.7232 H   0  0  0  0  0  0  0  0  0  0  0  0
   -7.5640   -4.6227  -23.7446 H   0  0  0  0  0  0  0  0  0  0  0  0
  1  2  1  0
  2  3  1  0
  3  4  1  0
  4  5  1  0
  5  6  2  0
  6  7  1  0
  7  8  2  0
  8  9  1  0
  9 10  2  0
 10 11  1  0
 11 12  2  0
 12 13  1  0
 13 14  2  0
 13 15  1  0
 12 16  1  0
 11 17  1  0
 10 18  1  0
  8 19  1  0
  6 20  1  0
  4 21  1  0
 21 22  2  0
 21 23  1  0
 23 24  1  6
 24 25  1  0
 25 26  1  0
 26 27  1  0
 27 28  1  0
 28 29  2  0
 29 30  1  0
 30 31  1  0
 30 32  1  0
 29 33  1  0
 26 34  1  0
 26 35  1  0
 25 36  1  0
 36 37  2  0
 36 38  1  0
 38 39  2  0
 39 40  1  0
 40 41  2  0
 41 42  1  0
 41 43  1  0
 43 44  2  0
 43 45  1  0
 40 46  1  0
 39 47  1  0
 24 48  1  0
 24 49  1  0
  3 50  1  0
  3 51  1  0
  2 52  1  1
  1 53  1  0
  1 54  1  0
  1 55  1  0
 23  2  1  0
 31 27  2  0
 44 38  1  0
 14  5  1  0
 44 23  1  0
 14  9  1  0
M  END
>  <cnnaffinities>  (62) 
[6.55422, 6.37663, 6.49863, 6.37563]

>  <score>  (62) 
6.55422

>  <index>  (62) 
64

>  <Smiles>  (62) 
C([C@]1(C(N(c2c(nc(c3c(c(c(c(c23)[H])[H])[H])[H])[H])[H])C(=O)[C@]21C(N(C(c1nc(n(n1)[H])[H])([H])[H])C(=O)c1c(c(c(F)c(c21)[H])[H])[H])([H])[H])([H])[H])[H])([H])([H])[H]

>  <h>  (62) 
<NA>

>  <Training>  (62) 
True

>  <Success>  (62) 
True

>  <enamine_searched>  (62) 
False

>  <enamine_id>  (62) 
nan

$$$$

     RDKit          3D

 55 60  0  0  0  0  0  0  0  0999 V2000
   -7.9093   -3.5845  -24.0923 C   0  0  0  0  0  0  0  0  0  0  0  0
   -8.2932   -2.8430  -22.8176 C   0  0  1  0  0  0  0  0  0  0  0  0
   -7.0695   -2.6134  -21.9222 C   0  0  0  0  0  0  0  0  0  0  0  0
   -7.3954   -1.4128  -21.1976 N   0  0  0  0  0  0  0  0  0  0  0  0
   -6.5160   -0.9473  -20.1919 C   0  0  0  0  0  0  0  0  0  0  0  0
   -6.7657   -1.2506  -18.8830 C   0  0  0  0  0  0  0  0  0  0  0  0
   -5.9028   -0.9969  -17.8673 N   0  0  0  0  0  0  0  0  0  0  0  0
   -4.7788   -0.3943  -18.1592 C   0  0  0  0  0  0  0  0  0  0  0  0
   -4.4257    0.0236  -19.4719 C   0  0  0  0  0  0  0  0  0  0  0  0
   -3.2628    0.7877  -19.7283 C   0  0  0  0  0  0  0  0  0  0  0  0
   -3.0333    1.3014  -20.9757 C   0  0  0  0  0  0  0  0  0  0  0  0
   -3.9006    0.9828  -22.0482 C   0  0  0  0  0  0  0  0  0  0  0  0
   -4.9985    0.1846  -21.8373 C   0  0  0  0  0  0  0  0  0  0  0  0
   -5.3120   -0.2653  -20.5300 C   0  0  0  0  0  0  0  0  0  0  0  0
   -5.6454   -0.0702  -22.6709 H   0  0  0  0  0  0  0  0  0  0  0  0
   -3.7190    1.4053  -23.0312 H   0  0  0  0  0  0  0  0  0  0  0  0
   -2.1879    1.9599  -21.1467 H   0  0  0  0  0  0  0  0  0  0  0  0
   -2.6213    1.0198  -18.8808 H   0  0  0  0  0  0  0  0  0  0  0  0
   -4.0745   -0.1964  -17.3472 H   0  0  0  0  0  0  0  0  0  0  0  0
   -7.6984   -1.7550  -18.6362 H   0  0  0  0  0  0  0  0  0  0  0  0
   -8.4332   -0.6765  -21.7245 C   0  0  0  0  0  0  0  0  0  0  0  0
   -8.8332    0.3702  -21.2691 O   0  0  0  0  0  0  0  0  0  0  0  0
   -8.9680   -1.4415  -22.9726 C   0  0  1  0  0  0  0  0  0  0  0  0
   -8.4998   -0.7644  -24.2898 C   0  0  0  0  0  0  0  0  0  0  0  0
   -9.1995    0.4731  -24.5728 N   0  0  0  0  0  0  0  0  0  0  0  0
   -8.4633    1.6742  -24.9358 C   0  0  0  0  0  0  0  0  0  0  0  0
   -8.1656    2.5272  -23.7398 C   0  0  0  0  0  0  0  0  0  0  0  0
   -8.9393    3.4197  -23.0873 C   0  0  0  0  0  0  0  0  0  0  0  0
   -8.2113    3.9437  -22.0620 O   0  0  0  0  0  0  0  0  0  0  0  0
   -7.0306    3.2995  -22.1282 C   0  0  0  0  0  0  0  0  0  0  0  0
   -6.9365    2.4529  -23.0955 N   0  0  0  0  0  0  0  0  0  0  0  0
   -6.2824    3.5602  -21.3869 H   0  0  0  0  0  0  0  0  0  0  0  0
   -9.9628    3.7527  -23.1824 H   0  0  0  0  0  0  0  0  0  0  0  0
   -9.0552    2.2187  -25.6790 H   0  0  0  0  0  0  0  0  0  0  0  0
   -7.5189    1.3765  -25.3989 H   0  0  0  0  0  0  0  0  0  0  0  0
  -10.5573    0.5883  -24.4437 C   0  0  0  0  0  0  0  0  0  0  0  0
  -11.1765    1.5400  -24.8973 O   0  0  0  0  0  0  0  0  0  0  0  0
  -11.2324   -0.5054  -23.6773 C   0  0  0  0  0  0  0  0  0  0  0  0
  -12.6275   -0.5020  -23.6311 C   0  0  0  0  0  0  0  0  0  0  0  0
  -13.3110   -1.3920  -22.8309 C   0  0  0  0  0  0  0  0  0  0  0  0
  -12.5561   -2.2676  -22.0595 C   0  0  0  0  0  0  0  0  0  0  0  0
  -13.2006   -3.1094  -21.2378 F   0  0  0  0  0  0  0  0  0  0  0  0
  -11.1778   -2.3027  -22.0951 C   0  0  0  0  0  0  0  0  0  0  0  0
  -10.4859   -1.4426  -22.9524 C   0  0  0  0  0  0  0  0  0  0  0  0
  -10.6608   -2.9877  -21.4331 H   0  0  0  0  0  0  0  0  0  0  0  0
  -14.3943   -1.3991  -22.7660 H   0  0  0  0  0  0  0  0  0  0  0  0
  -13.1537    0.2360  -24.2225 H   0  0  0  0  0  0  0  0  0  0  0  0
   -8.6694   -1.4687  -25.1139 H   0  0  0  0  0  0  0  0  0  0  0  0
   -7.4234   -0.5592  -24.2368 H   0  0  0  0  0  0  0  0  0  0  0  0
   -6.1429   -2.5040  -22.5123 H   0  0  0  0  0  0  0  0  0  0  0  0
   -6.9131   -3.4346  -21.2163 H   0  0  0  0  0  0  0  0  0  0  0  0
   -8.9891   -3.4764  -22.2635 H   0  0  0  0  0  0  0  0  0  0  0  0
   -8.7652   -3.7322  -24.7588 H   0  0  0  0  0  0  0  0  0  0  0  0
   -7.1336   -3.0363  -24.6396 H   0  0  0  0  0  0  0  0  0  0  0  0
   -7.4987   -4.5641  -23.8321 H   0  0  0  0  0  0  0  0  0  0  0  0
  1  2  1  0
  2  3  1  0
  3  4  1  0
  4  5  1  0
  5  6  2  0
  6  7  1  0
  7  8  2  0
  8  9  1  0
  9 10  2  0
 10 11  1  0
 11 12  2  0
 12 13  1  0
 13 14  2  0
 13 15  1  0
 12 16  1  0
 11 17  1  0
 10 18  1  0
  8 19  1  0
  6 20  1  0
  4 21  1  0
 21 22  2  0
 21 23  1  0
 23 24  1  6
 24 25  1  0
 25 26  1  0
 26 27  1  0
 27 28  2  0
 28 29  1  0
 29 30  1  0
 30 31  2  0
 30 32  1  0
 28 33  1  0
 26 34  1  0
 26 35  1  0
 25 36  1  0
 36 37  2  0
 36 38  1  0
 38 39  2  0
 39 40  1  0
 40 41  2  0
 41 42  1  0
 41 43  1  0
 43 44  2  0
 43 45  1  0
 40 46  1  0
 39 47  1  0
 24 48  1  0
 24 49  1  0
  3 50  1  0
  3 51  1  0
  2 52  1  1
  1 53  1  0
  1 54  1  0
  1 55  1  0
 23  2  1  0
 31 27  1  0
 44 38  1  0
 14  5  1  0
 44 23  1  0
 14  9  1  0
M  END
>  <cnnaffinities>  (63) 
[6.55667]

>  <score>  (63) 
6.55667

>  <index>  (63) 
65

>  <Smiles>  (63) 
C([C@]1(C(N(c2c(nc(c3c(c(c(c(c23)[H])[H])[H])[H])[H])[H])C(=O)[C@]21C(N(C(c1c(oc(n1)[H])[H])([H])[H])C(=O)c1c(c(c(F)c(c21)[H])[H])[H])([H])[H])([H])[H])[H])([H])([H])[H]

>  <h>  (63) 
<NA>

>  <Training>  (63) 
True

>  <Success>  (63) 
True

>  <enamine_searched>  (63) 
False

>  <enamine_id>  (63) 
nan

$$$$

     RDKit          3D

 44 47  0  0  0  0  0  0  0  0999 V2000
   -9.8302    1.4091  -24.4212 C   0  0  0  0  0  0  0  0  0  0  0  0
  -10.9718    0.5061  -23.9946 C   0  0  0  0  0  0  0  0  0  0  0  0
  -10.7905   -0.1283  -22.6092 C   0  0  1  0  0  0  0  0  0  0  0  0
  -12.0185   -0.9247  -22.2796 C   0  0  0  0  0  0  0  0  0  0  0  0
  -13.3318   -0.3791  -22.1108 C   0  0  0  0  0  0  0  0  0  0  0  0
  -14.2156   -1.2940  -21.6313 C   0  0  0  0  0  0  0  0  0  0  0  0
  -13.4879   -2.8542  -21.4825 S   0  0  0  0  0  0  0  0  0  0  0  0
  -11.9635   -2.2621  -22.0391 C   0  0  0  0  0  0  0  0  0  0  0  0
  -10.7504   -3.1271  -22.2412 C   0  0  0  0  0  0  0  0  0  0  0  0
   -9.7047   -2.3077  -22.9997 C   0  0  0  0  0  0  0  0  0  0  0  0
   -9.5919   -0.9595  -22.4474 N   0  0  0  0  0  0  0  0  0  0  0  0
   -8.5166   -0.4312  -21.7660 C   0  0  0  0  0  0  0  0  0  0  0  0
   -8.4235    0.7601  -21.5344 O   0  0  0  0  0  0  0  0  0  0  0  0
   -7.4662   -1.4515  -21.2944 C   0  0  0  0  0  0  0  0  0  0  0  0
   -6.5033   -0.9969  -20.2258 C   0  0  0  0  0  0  0  0  0  0  0  0
   -6.7533   -1.2612  -18.9056 C   0  0  0  0  0  0  0  0  0  0  0  0
   -5.9291   -0.9651  -17.8673 N   0  0  0  0  0  0  0  0  0  0  0  0
   -4.8141   -0.3428  -18.1523 C   0  0  0  0  0  0  0  0  0  0  0  0
   -4.4528    0.0608  -19.4651 C   0  0  0  0  0  0  0  0  0  0  0  0
   -3.2922    0.8339  -19.7143 C   0  0  0  0  0  0  0  0  0  0  0  0
   -3.0633    1.3556  -20.9606 C   0  0  0  0  0  0  0  0  0  0  0  0
   -3.9275    1.0286  -22.0308 C   0  0  0  0  0  0  0  0  0  0  0  0
   -5.0184    0.2199  -21.8321 C   0  0  0  0  0  0  0  0  0  0  0  0
   -5.3219   -0.2652  -20.5343 C   0  0  0  0  0  0  0  0  0  0  0  0
   -5.7094    0.0217  -22.6495 H   0  0  0  0  0  0  0  0  0  0  0  0
   -3.7421    1.4489  -23.0145 H   0  0  0  0  0  0  0  0  0  0  0  0
   -2.2409    2.0439  -21.1276 H   0  0  0  0  0  0  0  0  0  0  0  0
   -2.6314    1.0601  -18.8820 H   0  0  0  0  0  0  0  0  0  0  0  0
   -4.1389   -0.1023  -17.3260 H   0  0  0  0  0  0  0  0  0  0  0  0
   -7.6936   -1.7304  -18.6197 H   0  0  0  0  0  0  0  0  0  0  0  0
   -8.0340   -2.3063  -20.9036 H   0  0  0  0  0  0  0  0  0  0  0  0
   -6.9177   -1.7997  -22.1805 H   0  0  0  0  0  0  0  0  0  0  0  0
   -8.7286   -2.8018  -23.0255 H   0  0  0  0  0  0  0  0  0  0  0  0
  -10.0398   -2.2167  -24.0403 H   0  0  0  0  0  0  0  0  0  0  0  0
  -10.3542   -3.4607  -21.2744 H   0  0  0  0  0  0  0  0  0  0  0  0
  -10.9972   -4.0426  -22.7940 H   0  0  0  0  0  0  0  0  0  0  0  0
  -15.2212   -1.1133  -21.2707 H   0  0  0  0  0  0  0  0  0  0  0  0
  -13.5942    0.6556  -22.3170 H   0  0  0  0  0  0  0  0  0  0  0  0
  -10.6674    0.7007  -21.8981 H   0  0  0  0  0  0  0  0  0  0  0  0
  -11.9037    1.0811  -23.9277 H   0  0  0  0  0  0  0  0  0  0  0  0
  -11.1698   -0.2766  -24.7376 H   0  0  0  0  0  0  0  0  0  0  0  0
   -8.8959    0.8504  -24.5326 H   0  0  0  0  0  0  0  0  0  0  0  0
  -10.0595    1.8914  -25.3761 H   0  0  0  0  0  0  0  0  0  0  0  0
   -9.6690    2.1891  -23.6705 H   0  0  0  0  0  0  0  0  0  0  0  0
  1  2  1  0
  2  3  1  0
  3  4  1  0
  4  5  1  0
  5  6  2  0
  6  7  1  0
  7  8  1  0
  8  9  1  0
  9 10  1  0
 10 11  1  0
 11 12  1  0
 12 13  2  0
 12 14  1  0
 14 15  1  0
 15 16  2  0
 16 17  1  0
 17 18  2  0
 18 19  1  0
 19 20  2  0
 20 21  1  0
 21 22  2  0
 22 23  1  0
 23 24  2  0
 23 25  1  0
 22 26  1  0
 21 27  1  0
 20 28  1  0
 18 29  1  0
 16 30  1  0
 14 31  1  0
 14 32  1  0
 10 33  1  0
 10 34  1  0
  9 35  1  0
  9 36  1  0
  6 37  1  0
  5 38  1  0
  3 39  1  1
  2 40  1  0
  2 41  1  0
  1 42  1  0
  1 43  1  0
  1 44  1  0
 11  3  1  0
 24 15  1  0
  8  4  2  0
 24 19  1  0
M  END
>  <cnnaffinities>  (64) 
[5.95588, 5.71026]

>  <score>  (64) 
5.95588

>  <index>  (64) 
66

>  <Smiles>  (64) 
C(C([C@]1(c2c(c(sc2C(C(N1C(=O)C(c1c(nc(c2c(c(c(c(c12)[H])[H])[H])[H])[H])[H])([H])[H])([H])[H])([H])[H])[H])[H])[H])([H])[H])([H])([H])[H]

>  <h>  (64) 
<NA>

>  <Training>  (64) 
True

>  <Success>  (64) 
True

>  <enamine_searched>  (64) 
False

>  <enamine_id>  (64) 
nan

$$$$

     RDKit          3D

 58 63  0  0  0  0  0  0  0  0999 V2000
   -8.3989   -7.1490  -27.5924 C   0  0  0  0  0  0  0  0  0  0  0  0
   -7.8382   -5.8042  -27.2546 C   0  0  0  0  0  0  0  0  0  0  0  0
   -8.5351   -4.5713  -27.3550 C   0  0  0  0  0  0  0  0  0  0  0  0
   -7.6308   -3.6520  -26.9515 C   0  0  0  0  0  0  0  0  0  0  0  0
   -7.7158   -2.1641  -26.8048 C   0  0  0  0  0  0  0  0  0  0  0  0
   -8.5533   -1.7703  -25.6802 N   0  0  0  0  0  0  0  0  0  0  0  0
   -7.9356   -1.2478  -24.4703 C   0  0  0  0  0  0  0  0  0  0  0  0
   -8.7513   -1.5388  -23.1832 C   0  0  2  0  0  0  0  0  0  0  0  0
   -8.1627   -0.6153  -22.0953 C   0  0  0  0  0  0  0  0  0  0  0  0
   -8.2803    0.5929  -22.0300 O   0  0  0  0  0  0  0  0  0  0  0  0
   -7.4247   -1.3827  -21.2205 N   0  0  0  0  0  0  0  0  0  0  0  0
   -6.5260   -0.9175  -20.2305 C   0  0  0  0  0  0  0  0  0  0  0  0
   -6.7523   -1.2613  -18.9238 C   0  0  0  0  0  0  0  0  0  0  0  0
   -5.9091   -1.0051  -17.8964 N   0  0  0  0  0  0  0  0  0  0  0  0
   -4.7878   -0.3893  -18.1764 C   0  0  0  0  0  0  0  0  0  0  0  0
   -4.4379    0.0412  -19.4851 C   0  0  0  0  0  0  0  0  0  0  0  0
   -3.2596    0.7884  -19.7198 C   0  0  0  0  0  0  0  0  0  0  0  0
   -2.9967    1.2880  -20.9675 C   0  0  0  0  0  0  0  0  0  0  0  0
   -3.8488    0.9770  -22.0526 C   0  0  0  0  0  0  0  0  0  0  0  0
   -4.9677    0.2115  -21.8597 C   0  0  0  0  0  0  0  0  0  0  0  0
   -5.3166   -0.2308  -20.5553 C   0  0  0  0  0  0  0  0  0  0  0  0
   -5.5946   -0.0605  -22.7036 H   0  0  0  0  0  0  0  0  0  0  0  0
   -3.6218    1.3680  -23.0396 H   0  0  0  0  0  0  0  0  0  0  0  0
   -2.1372    1.9297  -21.1296 H   0  0  0  0  0  0  0  0  0  0  0  0
   -2.6240    1.0068  -18.8668 H   0  0  0  0  0  0  0  0  0  0  0  0
   -4.0815   -0.2068  -17.3643 H   0  0  0  0  0  0  0  0  0  0  0  0
   -7.6693   -1.7973  -18.6830 H   0  0  0  0  0  0  0  0  0  0  0  0
   -7.3749   -2.7793  -21.5727 C   0  0  0  0  0  0  0  0  0  0  0  0
   -8.5343   -2.9584  -22.5480 C   0  0  2  0  0  0  0  0  0  0  0  0
   -8.2745   -4.1072  -23.5016 C   0  0  0  0  0  0  0  0  0  0  0  0
   -7.3042   -3.9682  -23.9868 H   0  0  0  0  0  0  0  0  0  0  0  0
   -9.0426   -4.1653  -24.2773 H   0  0  0  0  0  0  0  0  0  0  0  0
   -8.2451   -5.0472  -22.9430 H   0  0  0  0  0  0  0  0  0  0  0  0
   -9.4442   -3.1705  -21.9648 H   0  0  0  0  0  0  0  0  0  0  0  0
   -7.4825   -3.3640  -20.6659 H   0  0  0  0  0  0  0  0  0  0  0  0
   -6.4080   -3.0542  -22.0277 H   0  0  0  0  0  0  0  0  0  0  0  0
  -10.2128   -1.2565  -23.4575 C   0  0  0  0  0  0  0  0  0  0  0  0
  -11.0828   -0.9865  -22.3988 C   0  0  0  0  0  0  0  0  0  0  0  0
  -12.4296   -0.8040  -22.6539 C   0  0  0  0  0  0  0  0  0  0  0  0
  -13.2668   -0.5526  -21.6412 F   0  0  0  0  0  0  0  0  0  0  0  0
  -12.9779   -0.8912  -23.9272 C   0  0  0  0  0  0  0  0  0  0  0  0
  -12.1166   -1.1777  -24.9636 C   0  0  0  0  0  0  0  0  0  0  0  0
  -10.7533   -1.3630  -24.7402 C   0  0  0  0  0  0  0  0  0  0  0  0
   -9.9034   -1.7404  -25.9030 C   0  0  0  0  0  0  0  0  0  0  0  0
  -10.3966   -2.0283  -26.9872 O   0  0  0  0  0  0  0  0  0  0  0  0
  -12.4819   -1.2752  -25.9772 H   0  0  0  0  0  0  0  0  0  0  0  0
  -14.0446   -0.7466  -24.0784 H   0  0  0  0  0  0  0  0  0  0  0  0
  -10.7000   -0.9350  -21.3872 H   0  0  0  0  0  0  0  0  0  0  0  0
   -6.9275   -1.6691  -24.3649 H   0  0  0  0  0  0  0  0  0  0  0  0
   -7.8098   -0.1600  -24.5587 H   0  0  0  0  0  0  0  0  0  0  0  0
   -8.1740   -1.7526  -27.7092 H   0  0  0  0  0  0  0  0  0  0  0  0
   -6.7222   -1.7316  -26.6926 H   0  0  0  0  0  0  0  0  0  0  0  0
   -6.4837   -4.2617  -26.6209 O   0  0  0  0  0  0  0  0  0  0  0  0
   -6.6125   -5.6302  -26.8168 N   0  0  0  0  0  0  0  0  0  0  0  0
   -9.5560   -4.4256  -27.6858 H   0  0  0  0  0  0  0  0  0  0  0  0
   -9.4746   -7.1606  -27.3935 H   0  0  0  0  0  0  0  0  0  0  0  0
   -7.9338   -7.9257  -26.9941 H   0  0  0  0  0  0  0  0  0  0  0  0
   -8.2490   -7.3865  -28.6513 H   0  0  0  0  0  0  0  0  0  0  0  0
  1  2  1  0
  2  3  1  0
  3  4  2  0
  4  5  1  0
  5  6  1  0
  6  7  1  0
  8  7  1  6
  8  9  1  0
  9 10  2  0
  9 11  1  0
 11 12  1  0
 12 13  2  0
 13 14  1  0
 14 15  2  0
 15 16  1  0
 16 17  2  0
 17 18  1  0
 18 19  2  0
 19 20  1  0
 20 21  2  0
 20 22  1  0
 19 23  1  0
 18 24  1  0
 17 25  1  0
 15 26  1  0
 13 27  1  0
 11 28  1  0
 28 29  1  0
 29 30  1  0
 30 31  1  0
 30 32  1  0
 30 33  1  0
 29 34  1  1
 28 35  1  0
 28 36  1  0
  8 37  1  0
 37 38  2  0
 38 39  1  0
 39 40  1  0
 39 41  2  0
 41 42  1  0
 42 43  2  0
 43 44  1  0
 44 45  2  0
 42 46  1  0
 41 47  1  0
 38 48  1  0
  7 49  1  0
  7 50  1  0
  5 51  1  0
  5 52  1  0
  4 53  1  0
 53 54  1  0
  3 55  1  0
  1 56  1  0
  1 57  1  0
  1 58  1  0
 54  2  2  0
 44  6  1  0
 29  8  1  0
 43 37  1  0
 21 12  1  0
 21 16  1  0
M  END
>  <cnnaffinities>  (65) 
[6.54201]

>  <score>  (65) 
6.54201

>  <index>  (65) 
67

>  <Smiles>  (65) 
C(c1c(c(C(N2C([C@@]3(C(=O)N(c4c(nc(c5c(c(c(c(c45)[H])[H])[H])[H])[H])[H])C([C@@]3(C([H])([H])[H])[H])([H])[H])c3c(c(F)c(c(c3C2=O)[H])[H])[H])([H])[H])([H])[H])on1)[H])([H])([H])[H]

>  <h>  (65) 
<NA>

>  <Training>  (65) 
True

>  <Success>  (65) 
True

>  <enamine_searched>  (65) 
False

>  <enamine_id>  (65) 
nan

$$$$

     RDKit          3D

 65 70  0  0  0  0  0  0  0  0999 V2000
   -9.0676    0.1898  -20.8166 O   0  0  0  0  0  0  0  0  0  0  0  0
   -8.2776   -0.1591  -21.6714 C   0  0  0  0  0  0  0  0  0  0  0  0
   -7.4553   -1.4191  -21.4014 C   0  0  0  0  0  0  0  0  0  0  0  0
   -6.4479   -1.1178  -20.3181 C   0  0  0  0  0  0  0  0  0  0  0  0
   -6.6471   -1.5173  -19.0225 C   0  0  0  0  0  0  0  0  0  0  0  0
   -5.7521   -1.3609  -18.0154 N   0  0  0  0  0  0  0  0  0  0  0  0
   -4.6435   -0.7250  -18.2973 C   0  0  0  0  0  0  0  0  0  0  0  0
   -4.3457   -0.1764  -19.5772 C   0  0  0  0  0  0  0  0  0  0  0  0
   -3.1608    0.5581  -19.8158 C   0  0  0  0  0  0  0  0  0  0  0  0
   -2.9045    1.0977  -21.0449 C   0  0  0  0  0  0  0  0  0  0  0  0
   -3.8444    0.9516  -22.0831 C   0  0  0  0  0  0  0  0  0  0  0  0
   -4.9882    0.2159  -21.8874 C   0  0  0  0  0  0  0  0  0  0  0  0
   -5.2791   -0.3595  -20.6199 C   0  0  0  0  0  0  0  0  0  0  0  0
   -5.6918    0.1194  -22.7043 H   0  0  0  0  0  0  0  0  0  0  0  0
   -3.6648    1.4258  -23.0430 H   0  0  0  0  0  0  0  0  0  0  0  0
   -1.9806    1.6359  -21.2272 H   0  0  0  0  0  0  0  0  0  0  0  0
   -2.4658    0.6923  -18.9953 H   0  0  0  0  0  0  0  0  0  0  0  0
   -3.9100   -0.6292  -17.4976 H   0  0  0  0  0  0  0  0  0  0  0  0
   -7.5819   -1.9989  -18.7300 H   0  0  0  0  0  0  0  0  0  0  0  0
   -6.9582   -1.8023  -22.2947 H   0  0  0  0  0  0  0  0  0  0  0  0
   -8.1575   -2.1802  -21.0401 H   0  0  0  0  0  0  0  0  0  0  0  0
   -8.0707    0.5659  -22.8486 N   0  0  0  0  0  0  0  0  0  0  0  0
   -8.0174   -0.0807  -24.1600 C   0  0  0  0  0  0  0  0  0  0  0  0
   -9.3870   -0.3021  -24.7792 C   0  0  0  0  0  0  0  0  0  0  0  0
   -9.6967    0.1464  -26.0600 C   0  0  0  0  0  0  0  0  0  0  0  0
  -10.9878    0.0105  -26.5672 C   0  0  0  0  0  0  0  0  0  0  0  0
  -11.9752   -0.6254  -25.8204 C   0  0  0  0  0  0  0  0  0  0  0  0
  -11.6493   -1.1034  -24.5583 C   0  0  0  0  0  0  0  0  0  0  0  0
  -12.8624   -1.8919  -23.5865 Cl  0  0  0  0  0  0  0  0  0  0  0  0
  -10.3759   -0.9419  -24.0303 C   0  0  0  0  0  0  0  0  0  0  0  0
  -10.1782   -1.2777  -23.0170 H   0  0  0  0  0  0  0  0  0  0  0  0
  -12.9875   -0.7535  -26.1912 H   0  0  0  0  0  0  0  0  0  0  0  0
  -11.2088    0.4235  -27.5486 H   0  0  0  0  0  0  0  0  0  0  0  0
   -8.9325    0.6123  -26.6800 H   0  0  0  0  0  0  0  0  0  0  0  0
   -7.3920    0.5198  -24.8273 H   0  0  0  0  0  0  0  0  0  0  0  0
   -7.5119   -1.0432  -24.0479 H   0  0  0  0  0  0  0  0  0  0  0  0
   -8.4178    1.9906  -22.8029 C   0  0  2  0  0  0  0  0  0  0  0  0
   -9.9201    2.3444  -22.7654 C   0  0  0  0  0  0  0  0  0  0  0  0
   -9.9278    3.8614  -23.0999 C   0  0  0  0  0  0  0  0  0  0  0  0
   -8.4435    4.1885  -23.2884 C   0  0  2  0  0  0  0  0  0  0  0  0
   -7.9236    2.8995  -23.9358 C   0  0  0  0  0  0  0  0  0  0  0  0
   -8.4535    2.6858  -24.8680 H   0  0  0  0  0  0  0  0  0  0  0  0
   -6.8363    2.8695  -24.0836 H   0  0  0  0  0  0  0  0  0  0  0  0
   -7.8159    4.1657  -21.8817 N   0  0  2  0  0  4  0  0  0  0  0  0
   -6.4941    4.8845  -21.7508 C   0  0  0  0  0  0  0  0  0  0  0  0
   -5.8601    4.9228  -20.3642 C   0  0  0  0  0  0  0  0  0  0  0  0
   -4.3888    5.3761  -20.2695 C   0  0  0  0  0  0  0  0  0  0  0  0
   -4.6934    6.3439  -19.2481 O   0  0  0  0  0  0  0  0  0  0  0  0
   -6.1029    6.0808  -19.3745 C   0  0  0  0  0  0  0  0  0  0  0  0
   -6.6422    6.9490  -19.7798 H   0  0  0  0  0  0  0  0  0  0  0  0
   -6.5485    5.7898  -18.4165 H   0  0  0  0  0  0  0  0  0  0  0  0
   -3.6933    4.6041  -19.9143 H   0  0  0  0  0  0  0  0  0  0  0  0
   -3.9672    5.8525  -21.1702 H   0  0  0  0  0  0  0  0  0  0  0  0
   -5.9737    3.9421  -19.9036 H   0  0  0  0  0  0  0  0  0  0  0  0
   -5.7709    4.3920  -22.4149 H   0  0  0  0  0  0  0  0  0  0  0  0
   -6.6136    5.9057  -22.1278 H   0  0  0  0  0  0  0  0  0  0  0  0
   -7.7756    2.6683  -21.5929 C   0  0  0  0  0  0  0  0  0  0  0  0
   -6.7352    2.3709  -21.4520 H   0  0  0  0  0  0  0  0  0  0  0  0
   -8.3546    2.4515  -20.6956 H   0  0  0  0  0  0  0  0  0  0  0  0
   -8.4936    4.5866  -21.2169 H   0  0  0  0  0  0  0  0  0  0  0  0
   -8.2255    5.1340  -23.7813 H   0  0  0  0  0  0  0  0  0  0  0  0
  -10.4843    4.0479  -24.0214 H   0  0  0  0  0  0  0  0  0  0  0  0
  -10.3733    4.4875  -22.3190 H   0  0  0  0  0  0  0  0  0  0  0  0
  -10.4365    1.7732  -23.5390 H   0  0  0  0  0  0  0  0  0  0  0  0
  -10.3569    2.0881  -21.7982 H   0  0  0  0  0  0  0  0  0  0  0  0
  1  2  2  0
  2  3  1  0
  3  4  1  0
  4  5  2  0
  5  6  1  0
  6  7  2  0
  7  8  1  0
  8  9  2  0
  9 10  1  0
 10 11  2  0
 11 12  1  0
 12 13  2  0
 12 14  1  0
 11 15  1  0
 10 16  1  0
  9 17  1  0
  7 18  1  0
  5 19  1  0
  3 20  1  0
  3 21  1  0
  2 22  1  0
 22 23  1  0
 23 24  1  0
 24 25  2  0
 25 26  1  0
 26 27  2  0
 27 28  1  0
 28 29  1  0
 28 30  2  0
 30 31  1  0
 27 32  1  0
 26 33  1  0
 25 34  1  0
 23 35  1  0
 23 36  1  0
 37 22  1  6
 37 38  1  0
 38 39  1  0
 39 40  1  0
 40 41  1  0
 41 42  1  0
 41 43  1  0
 40 44  1  0
 44 45  1  0
 45 46  1  0
 46 47  1  0
 47 48  1  0
 48 49  1  0
 49 50  1  0
 49 51  1  0
 47 52  1  0
 47 53  1  0
 46 54  1  0
 45 55  1  0
 45 56  1  0
 44 57  1  0
 57 58  1  0
 57 59  1  0
 44 60  1  1
 40 61  1  6
 39 62  1  0
 39 63  1  0
 38 64  1  0
 38 65  1  0
 13  4  1  0
 30 24  1  0
 41 37  1  0
 49 46  1  0
 13  8  1  0
 57 37  1  0
M  CHG  1  44   1
M  END
>  <cnnaffinities>  (66) 
[6.30578]

>  <score>  (66) 
6.30578

>  <index>  (66) 
68

>  <Smiles>  (66) 
O=C(C(c1c(nc(c2c(c(c(c(c12)[H])[H])[H])[H])[H])[H])([H])[H])N(C(c1c(c(c(c(Cl)c1[H])[H])[H])[H])([H])[H])[C@]12C(C([C@](C1([H])[H])([N@+](C(C1(C(OC1([H])[H])([H])[H])[H])([H])[H])(C2([H])[H])[H])[H])([H])[H])([H])[H]

>  <h>  (66) 
<NA>

>  <Training>  (66) 
True

>  <Success>  (66) 
True

>  <enamine_searched>  (66) 
False

>  <enamine_id>  (66) 
nan

$$$$

     RDKit          3D

 63 67  0  0  0  0  0  0  0  0999 V2000
  -12.2788    6.3834  -23.7974 C   0  0  0  0  0  0  0  0  0  0  0  0
  -11.4314    5.3591  -23.7652 C   0  0  0  0  0  0  0  0  0  0  0  0
  -10.5904    5.0604  -24.9571 C   0  0  0  0  0  0  0  0  0  0  0  0
  -10.4705    5.8459  -25.8845 O   0  0  0  0  0  0  0  0  0  0  0  0
   -9.8913    3.8583  -24.9268 N   0  0  0  0  0  0  0  0  0  0  0  0
   -8.5638    3.8625  -25.5284 C   0  0  0  0  0  0  0  0  0  0  0  0
   -7.6103    3.1975  -24.5580 C   0  0  0  0  0  0  0  0  0  0  0  0
   -8.0396    1.7535  -24.3603 C   0  0  0  0  0  0  0  0  0  0  0  0
   -9.5202    1.6133  -24.0458 C   0  0  0  0  0  0  0  0  0  0  0  0
  -10.4073    2.6450  -24.4110 C   0  0  0  0  0  0  0  0  0  0  0  0
  -11.7927    2.4501  -24.3005 C   0  0  0  0  0  0  0  0  0  0  0  0
  -12.2933    1.2745  -23.7718 C   0  0  0  0  0  0  0  0  0  0  0  0
  -11.4284    0.2749  -23.3356 C   0  0  0  0  0  0  0  0  0  0  0  0
  -10.0547    0.4524  -23.4766 C   0  0  0  0  0  0  0  0  0  0  0  0
   -9.1445   -0.6778  -23.0133 N   0  0  1  0  0  4  0  0  0  0  0  0
   -8.3506   -1.3578  -24.2111 C   0  0  0  0  0  0  0  0  0  0  0  0
   -8.4183   -2.8692  -24.1963 C   0  0  0  0  0  0  0  0  0  0  0  0
   -7.2571   -3.6422  -24.1135 C   0  0  0  0  0  0  0  0  0  0  0  0
   -7.3202   -5.0310  -24.1443 C   0  0  0  0  0  0  0  0  0  0  0  0
   -8.5376   -5.6827  -24.2882 C   0  0  0  0  0  0  0  0  0  0  0  0
   -9.6902   -4.9152  -24.3964 C   0  0  0  0  0  0  0  0  0  0  0  0
  -11.2201   -5.7155  -24.6412 Cl  0  0  0  0  0  0  0  0  0  0  0  0
   -9.6442   -3.5286  -24.3323 C   0  0  0  0  0  0  0  0  0  0  0  0
  -10.5722   -2.9720  -24.4180 H   0  0  0  0  0  0  0  0  0  0  0  0
   -8.5872   -6.7659  -24.3175 H   0  0  0  0  0  0  0  0  0  0  0  0
   -6.4039   -5.6093  -24.0689 H   0  0  0  0  0  0  0  0  0  0  0  0
   -6.2839   -3.1613  -24.0350 H   0  0  0  0  0  0  0  0  0  0  0  0
   -7.3148   -1.0071  -24.1871 H   0  0  0  0  0  0  0  0  0  0  0  0
   -8.8044   -0.9690  -25.1252 H   0  0  0  0  0  0  0  0  0  0  0  0
   -8.3727   -0.3278  -21.7392 C   0  0  0  0  0  0  0  0  0  0  0  0
   -8.5655    0.7091  -21.1692 O   0  0  0  0  0  0  0  0  0  0  0  0
   -7.4559   -1.4489  -21.2638 C   0  0  0  0  0  0  0  0  0  0  0  0
   -6.4812   -1.0261  -20.1953 C   0  0  0  0  0  0  0  0  0  0  0  0
   -6.7259   -1.2761  -18.8730 C   0  0  0  0  0  0  0  0  0  0  0  0
   -5.8879   -0.9785  -17.8419 N   0  0  0  0  0  0  0  0  0  0  0  0
   -4.7672   -0.3757  -18.1459 C   0  0  0  0  0  0  0  0  0  0  0  0
   -4.4213    0.0324  -19.4609 C   0  0  0  0  0  0  0  0  0  0  0  0
   -3.2693    0.8139  -19.7171 C   0  0  0  0  0  0  0  0  0  0  0  0
   -3.0470    1.3332  -20.9621 C   0  0  0  0  0  0  0  0  0  0  0  0
   -3.9230    1.0095  -22.0221 C   0  0  0  0  0  0  0  0  0  0  0  0
   -5.0150    0.2057  -21.8102 C   0  0  0  0  0  0  0  0  0  0  0  0
   -5.3053   -0.2889  -20.5159 C   0  0  0  0  0  0  0  0  0  0  0  0
   -5.6726   -0.0576  -22.6371 H   0  0  0  0  0  0  0  0  0  0  0  0
   -3.7535    1.4367  -23.0026 H   0  0  0  0  0  0  0  0  0  0  0  0
   -2.2164    2.0118  -21.1379 H   0  0  0  0  0  0  0  0  0  0  0  0
   -2.6142    1.0435  -18.8836 H   0  0  0  0  0  0  0  0  0  0  0  0
   -4.0726   -0.1409  -17.3356 H   0  0  0  0  0  0  0  0  0  0  0  0
   -7.6505   -1.7733  -18.5837 H   0  0  0  0  0  0  0  0  0  0  0  0
   -8.1173   -2.2449  -20.8922 H   0  0  0  0  0  0  0  0  0  0  0  0
   -6.9358   -1.8551  -22.1355 H   0  0  0  0  0  0  0  0  0  0  0  0
   -9.7927   -1.4407  -22.7089 H   0  0  0  0  0  0  0  0  0  0  0  0
  -11.8368   -0.6363  -22.9062 H   0  0  0  0  0  0  0  0  0  0  0  0
  -13.3666    1.1381  -23.6814 H   0  0  0  0  0  0  0  0  0  0  0  0
  -12.4779    3.2309  -24.6138 H   0  0  0  0  0  0  0  0  0  0  0  0
   -7.8244    1.2087  -25.2906 H   0  0  0  0  0  0  0  0  0  0  0  0
   -7.4171    1.3044  -23.5819 H   0  0  0  0  0  0  0  0  0  0  0  0
   -6.5801    3.2522  -24.9259 H   0  0  0  0  0  0  0  0  0  0  0  0
   -7.6399    3.7244  -23.5982 H   0  0  0  0  0  0  0  0  0  0  0  0
   -8.5862    3.3429  -26.4968 H   0  0  0  0  0  0  0  0  0  0  0  0
   -8.2863    4.9016  -25.7141 H   0  0  0  0  0  0  0  0  0  0  0  0
  -11.3311    4.7142  -22.8951 H   0  0  0  0  0  0  0  0  0  0  0  0
  -12.3528    6.9989  -24.6896 H   0  0  0  0  0  0  0  0  0  0  0  0
  -12.8635    6.6564  -22.9257 H   0  0  0  0  0  0  0  0  0  0  0  0
  1  2  2  0
  2  3  1  0
  3  4  2  0
  3  5  1  0
  5  6  1  0
  6  7  1  0
  7  8  1  0
  8  9  1  0
  9 10  2  0
 10 11  1  0
 11 12  2  0
 12 13  1  0
 13 14  2  0
 14 15  1  0
 15 16  1  0
 16 17  1  0
 17 18  2  0
 18 19  1  0
 19 20  2  0
 20 21  1  0
 21 22  1  0
 21 23  2  0
 23 24  1  0
 20 25  1  0
 19 26  1  0
 18 27  1  0
 16 28  1  0
 16 29  1  0
 15 30  1  0
 30 31  2  0
 30 32  1  0
 32 33  1  0
 33 34  2  0
 34 35  1  0
 35 36  2  0
 36 37  1  0
 37 38  2  0
 38 39  1  0
 39 40  2  0
 40 41  1  0
 41 42  2  0
 41 43  1  0
 40 44  1  0
 39 45  1  0
 38 46  1  0
 36 47  1  0
 34 48  1  0
 32 49  1  0
 32 50  1  0
 15 51  1  1
 13 52  1  0
 12 53  1  0
 11 54  1  0
  8 55  1  0
  8 56  1  0
  7 57  1  0
  7 58  1  0
  6 59  1  0
  6 60  1  0
  2 61  1  0
  1 62  1  0
  1 63  1  0
 10  5  1  0
 23 17  1  0
 42 33  1  0
 14  9  1  0
 42 37  1  0
M  CHG  1  15   1
M  END
>  <cnnaffinities>  (67) 
[6.6767]

>  <score>  (67) 
6.6767

>  <index>  (67) 
69

>  <Smiles>  (67) 
C(=C(C(=O)N1C(C(C(c2c1c(c(c(c2[N@@+](C(c1c(c(c(c(Cl)c1[H])[H])[H])[H])([H])[H])(C(=O)C(c1c(nc(c2c(c(c(c(c12)[H])[H])[H])[H])[H])[H])([H])[H])[H])[H])[H])[H])([H])[H])([H])[H])([H])[H])[H])([H])[H]

>  <h>  (67) 
<NA>

>  <Training>  (67) 
True

>  <Success>  (67) 
True

>  <enamine_searched>  (67) 
False

>  <enamine_id>  (67) 
nan

$$$$

     RDKit          3D

 52 54  0  0  0  0  0  0  0  0999 V2000
   -2.5806   -3.2095  -25.4058 C   0  0  0  0  0  0  0  0  0  0  0  0
   -3.8621   -2.6973  -24.7390 C   0  0  0  0  0  0  0  0  0  0  0  0
   -4.4567   -1.5478  -25.5543 C   0  0  0  0  0  0  0  0  0  0  0  0
   -4.7654   -1.8869  -26.5494 H   0  0  0  0  0  0  0  0  0  0  0  0
   -3.7290   -0.7393  -25.6836 H   0  0  0  0  0  0  0  0  0  0  0  0
   -5.3357   -1.1267  -25.0517 H   0  0  0  0  0  0  0  0  0  0  0  0
   -4.9389   -3.7661  -24.5097 C   0  0  0  0  0  0  0  0  0  0  0  0
   -4.6946   -4.8879  -23.4700 C   0  0  0  0  0  0  0  0  0  0  0  0
   -3.6950   -5.9238  -23.9925 C   0  0  0  0  0  0  0  0  0  0  0  0
   -3.9906   -6.3063  -24.9768 H   0  0  0  0  0  0  0  0  0  0  0  0
   -3.6377   -6.7729  -23.3025 H   0  0  0  0  0  0  0  0  0  0  0  0
   -2.6829   -5.5227  -24.0766 H   0  0  0  0  0  0  0  0  0  0  0  0
   -4.1965   -4.3642  -22.1162 C   0  0  0  0  0  0  0  0  0  0  0  0
   -5.1200   -3.3175  -21.5072 C   0  0  0  0  0  0  0  0  0  0  0  0
   -6.5142   -3.7421  -21.6272 N   0  0  0  0  0  0  0  0  0  0  0  0
   -7.6139   -2.9553  -21.4323 C   0  0  0  0  0  0  0  0  0  0  0  0
   -8.7525   -3.4108  -21.4491 O   0  0  0  0  0  0  0  0  0  0  0  0
   -7.3920   -1.4461  -21.3020 C   0  0  0  0  0  0  0  0  0  0  0  0
   -6.4474   -0.9914  -20.2166 C   0  0  0  0  0  0  0  0  0  0  0  0
   -6.7131   -1.2777  -18.9004 C   0  0  0  0  0  0  0  0  0  0  0  0
   -5.9011   -0.9744  -17.8624 N   0  0  0  0  0  0  0  0  0  0  0  0
   -4.7850   -0.3390  -18.1412 C   0  0  0  0  0  0  0  0  0  0  0  0
   -4.4024    0.0735  -19.4448 C   0  0  0  0  0  0  0  0  0  0  0  0
   -3.2346    0.8362  -19.7005 C   0  0  0  0  0  0  0  0  0  0  0  0
   -2.9943    1.3755  -20.9386 C   0  0  0  0  0  0  0  0  0  0  0  0
   -3.8591    1.0631  -22.0011 C   0  0  0  0  0  0  0  0  0  0  0  0
   -4.9489    0.2490  -21.8061 C   0  0  0  0  0  0  0  0  0  0  0  0
   -5.2745   -0.2404  -20.5174 C   0  0  0  0  0  0  0  0  0  0  0  0
   -5.5974    0.0276  -22.6496 H   0  0  0  0  0  0  0  0  0  0  0  0
   -3.6681    1.4579  -22.9927 H   0  0  0  0  0  0  0  0  0  0  0  0
   -2.1627    2.0563  -21.1081 H   0  0  0  0  0  0  0  0  0  0  0  0
   -2.5887    1.0870  -18.8631 H   0  0  0  0  0  0  0  0  0  0  0  0
   -4.1316   -0.0909  -17.3024 H   0  0  0  0  0  0  0  0  0  0  0  0
   -7.6505   -1.7644  -18.6378 H   0  0  0  0  0  0  0  0  0  0  0  0
   -8.3808   -1.0033  -21.1667 H   0  0  0  0  0  0  0  0  0  0  0  0
   -7.0658   -1.0926  -22.2839 H   0  0  0  0  0  0  0  0  0  0  0  0
   -6.7173   -5.1571  -21.8917 C   0  0  0  0  0  0  0  0  0  0  0  0
   -6.0437   -5.6117  -23.1875 C   0  0  0  0  0  0  0  0  0  0  0  0
   -6.7302   -5.4824  -24.0329 H   0  0  0  0  0  0  0  0  0  0  0  0
   -5.8717   -6.6902  -23.0976 H   0  0  0  0  0  0  0  0  0  0  0  0
   -6.3303   -5.7452  -21.0503 H   0  0  0  0  0  0  0  0  0  0  0  0
   -7.7925   -5.3137  -21.9177 H   0  0  0  0  0  0  0  0  0  0  0  0
   -4.8525   -3.1536  -20.4571 H   0  0  0  0  0  0  0  0  0  0  0  0
   -4.9766   -2.3777  -22.0370 H   0  0  0  0  0  0  0  0  0  0  0  0
   -4.1645   -5.2252  -21.4435 H   0  0  0  0  0  0  0  0  0  0  0  0
   -3.1721   -3.9753  -22.1753 H   0  0  0  0  0  0  0  0  0  0  0  0
   -5.8671   -3.2451  -24.2436 H   0  0  0  0  0  0  0  0  0  0  0  0
   -5.1682   -4.2416  -25.4744 H   0  0  0  0  0  0  0  0  0  0  0  0
   -3.6020   -2.2754  -23.7654 H   0  0  0  0  0  0  0  0  0  0  0  0
   -2.0302   -2.3861  -25.8737 H   0  0  0  0  0  0  0  0  0  0  0  0
   -1.8943   -3.6831  -24.6984 H   0  0  0  0  0  0  0  0  0  0  0  0
   -2.8120   -3.9364  -26.1922 H   0  0  0  0  0  0  0  0  0  0  0  0
  1  2  1  0
  2  3  1  0
  3  4  1  0
  3  5  1  0
  3  6  1  0
  2  7  1  0
  7  8  1  0
  8  9  1  0
  9 10  1  0
  9 11  1  0
  9 12  1  0
  8 13  1  0
 13 14  1  0
 14 15  1  0
 15 16  1  0
 16 17  2  0
 16 18  1  0
 18 19  1  0
 19 20  2  0
 20 21  1  0
 21 22  2  0
 22 23  1  0
 23 24  2  0
 24 25  1  0
 25 26  2  0
 26 27  1  0
 27 28  2  0
 27 29  1  0
 26 30  1  0
 25 31  1  0
 24 32  1  0
 22 33  1  0
 20 34  1  0
 18 35  1  0
 18 36  1  0
 15 37  1  0
 37 38  1  0
 38 39  1  0
 38 40  1  0
 37 41  1  0
 37 42  1  0
 14 43  1  0
 14 44  1  0
 13 45  1  0
 13 46  1  0
  7 47  1  0
  7 48  1  0
  2 49  1  0
  1 50  1  0
  1 51  1  0
  1 52  1  0
 38  8  1  0
 28 19  1  0
 28 23  1  0
M  END
>  <cnnaffinities>  (68) 
[5.4883, 5.52023, 5.51591, 5.10218, 5.13398, 5.11734, 5.11727, 5.11733, 5.06723, 5.06737, 5.29364, 5.10338, 5.10534, 5.08658, 5.27118, 5.27112, 5.27106, 5.2711]

>  <score>  (68) 
5.4883

>  <index>  (68) 
70

>  <Smiles>  (68) 
C(C(C([H])([H])[H])(C(C1(C([H])([H])[H])C(C(N(C(=O)C(c2c(nc(c3c(c(c(c(c23)[H])[H])[H])[H])[H])[H])([H])[H])C(C1([H])[H])([H])[H])([H])[H])([H])[H])([H])[H])[H])([H])([H])[H]

>  <h>  (68) 
<NA>

>  <Training>  (68) 
True

>  <Success>  (68) 
True

>  <enamine_searched>  (68) 
False

>  <enamine_id>  (68) 
nan

$$$$

     RDKit          3D

 50 54  0  0  0  0  0  0  0  0999 V2000
  -10.1930   -2.9498  -22.0671 C   0  0  0  0  0  0  0  0  0  0  0  0
   -9.1464   -1.9920  -22.6522 C   0  0  1  0  0  0  0  0  0  0  0  0
   -8.6309   -1.0127  -21.5703 C   0  0  0  0  0  0  0  0  0  0  0  0
   -7.3278   -1.5174  -21.2235 N   0  0  0  0  0  0  0  0  0  0  0  0
   -6.4848   -1.0240  -20.2049 C   0  0  0  0  0  0  0  0  0  0  0  0
   -6.7214   -1.3387  -18.8920 C   0  0  0  0  0  0  0  0  0  0  0  0
   -5.8497   -1.0922  -17.8879 N   0  0  0  0  0  0  0  0  0  0  0  0
   -4.7318   -0.4777  -18.1932 C   0  0  0  0  0  0  0  0  0  0  0  0
   -4.4100   -0.0111  -19.5007 C   0  0  0  0  0  0  0  0  0  0  0  0
   -3.2143    0.7083  -19.7673 C   0  0  0  0  0  0  0  0  0  0  0  0
   -2.9781    1.2295  -21.0101 C   0  0  0  0  0  0  0  0  0  0  0  0
   -3.9092    1.0181  -22.0535 C   0  0  0  0  0  0  0  0  0  0  0  0
   -5.0390    0.2662  -21.8427 C   0  0  0  0  0  0  0  0  0  0  0  0
   -5.3224   -0.2641  -20.5468 C   0  0  0  0  0  0  0  0  0  0  0  0
   -5.7177    0.0528  -22.6685 H   0  0  0  0  0  0  0  0  0  0  0  0
   -3.7187    1.4577  -23.0275 H   0  0  0  0  0  0  0  0  0  0  0  0
   -2.0818    1.8170  -21.1954 H   0  0  0  0  0  0  0  0  0  0  0  0
   -2.5195    0.8810  -18.9494 H   0  0  0  0  0  0  0  0  0  0  0  0
   -4.0197   -0.3246  -17.3822 H   0  0  0  0  0  0  0  0  0  0  0  0
   -7.6447   -1.8376  -18.5994 H   0  0  0  0  0  0  0  0  0  0  0  0
   -6.8482   -2.4942  -22.0568 C   0  0  0  0  0  0  0  0  0  0  0  0
   -5.7978   -3.0714  -21.8719 O   0  0  0  0  0  0  0  0  0  0  0  0
   -7.8609   -2.6888  -23.2095 C   0  0  1  0  0  0  0  0  0  0  0  0
   -8.0208   -4.2064  -23.4640 C   0  0  0  0  0  0  0  0  0  0  0  0
   -6.8091   -4.7575  -24.0375 N   0  0  0  0  0  0  0  0  0  0  0  0
   -6.2740   -6.0045  -23.5393 C   0  0  0  0  0  0  0  0  0  0  0  0
   -6.7214   -7.4543  -24.0588 C   0  0  0  0  0  0  0  0  0  0  0  0
   -6.6928   -7.3584  -24.1431 N   0  0  0  0  0  0  0  0  0  0  0  0
   -6.5084   -6.1147  -22.4808 H   0  0  0  0  0  0  0  0  0  0  0  0
   -5.1997   -5.9771  -23.6648 H   0  0  0  0  0  0  0  0  0  0  0  0
   -6.2173   -4.1930  -25.1423 C   0  0  0  0  0  0  0  0  0  0  0  0
   -5.4116   -4.8136  -25.8184 O   0  0  0  0  0  0  0  0  0  0  0  0
   -6.5950   -2.7706  -25.4205 C   0  0  0  0  0  0  0  0  0  0  0  0
   -6.1288   -2.1850  -26.5996 C   0  0  0  0  0  0  0  0  0  0  0  0
   -6.3781   -0.8547  -26.8753 C   0  0  0  0  0  0  0  0  0  0  0  0
   -7.0816   -0.1178  -25.9306 C   0  0  0  0  0  0  0  0  0  0  0  0
   -7.3150    1.1832  -26.1798 F   0  0  0  0  0  0  0  0  0  0  0  0
   -7.5454   -0.6688  -24.7501 C   0  0  0  0  0  0  0  0  0  0  0  0
   -7.3453   -2.0345  -24.4946 C   0  0  0  0  0  0  0  0  0  0  0  0
   -8.0689   -0.0160  -24.0589 H   0  0  0  0  0  0  0  0  0  0  0  0
   -6.0437   -0.3835  -27.7932 H   0  0  0  0  0  0  0  0  0  0  0  0
   -5.5579   -2.8047  -27.2840 H   0  0  0  0  0  0  0  0  0  0  0  0
   -8.8796   -4.3923  -24.1265 H   0  0  0  0  0  0  0  0  0  0  0  0
   -8.2025   -4.7140  -22.5140 H   0  0  0  0  0  0  0  0  0  0  0  0
   -9.2772   -1.0138  -20.6961 H   0  0  0  0  0  0  0  0  0  0  0  0
   -8.5694    0.0215  -21.9333 H   0  0  0  0  0  0  0  0  0  0  0  0
   -9.6379   -1.4430  -23.4633 H   0  0  0  0  0  0  0  0  0  0  0  0
  -10.5628   -3.6492  -22.8228 H   0  0  0  0  0  0  0  0  0  0  0  0
   -9.7775   -3.5306  -21.2368 H   0  0  0  0  0  0  0  0  0  0  0  0
  -11.0554   -2.3926  -21.6858 H   0  0  0  0  0  0  0  0  0  0  0  0
  1  2  1  0
  2  3  1  0
  3  4  1  0
  4  5  1  0
  5  6  2  0
  6  7  1  0
  7  8  2  0
  8  9  1  0
  9 10  2  0
 10 11  1  0
 11 12  2  0
 12 13  1  0
 13 14  2  0
 13 15  1  0
 12 16  1  0
 11 17  1  0
 10 18  1  0
  8 19  1  0
  6 20  1  0
  4 21  1  0
 21 22  2  0
 21 23  1  0
 23 24  1  6
 24 25  1  0
 25 26  1  0
 26 27  1  0
 27 28  3  0
 26 29  1  0
 26 30  1  0
 25 31  1  0
 31 32  2  0
 31 33  1  0
 33 34  2  0
 34 35  1  0
 35 36  2  0
 36 37  1  0
 36 38  1  0
 38 39  2  0
 38 40  1  0
 35 41  1  0
 34 42  1  0
 24 43  1  0
 24 44  1  0
  3 45  1  0
  3 46  1  0
  2 47  1  6
  1 48  1  0
  1 49  1  0
  1 50  1  0
 23  2  1  0
 39 33  1  0
 14  5  1  0
 39 23  1  0
 14  9  1  0
M  END
>  <cnnaffinities>  (69) 
[6.24593]

>  <score>  (69) 
6.24593

>  <index>  (69) 
71

>  <Smiles>  (69) 
C([C@]1(C(N(c2c(nc(c3c(c(c(c(c23)[H])[H])[H])[H])[H])[H])C(=O)[C@]21C(N(C(C#N)([H])[H])C(=O)c1c(c(c(F)c(c21)[H])[H])[H])([H])[H])([H])[H])[H])([H])([H])[H]

>  <h>  (69) 
<NA>

>  <Training>  (69) 
True

>  <Success>  (69) 
True

>  <enamine_searched>  (69) 
False

>  <enamine_id>  (69) 
nan

$$$$

     RDKit          3D

 41 44  0  0  0  0  0  0  0  0999 V2000
   -5.5837   -3.1359  -21.5076 O   0  0  0  0  0  0  0  0  0  0  0  0
   -6.6233   -2.6692  -21.9516 C   0  0  0  0  0  0  0  0  0  0  0  0
   -7.3500   -1.5011  -21.2650 C   0  0  0  0  0  0  0  0  0  0  0  0
   -6.4891   -0.9766  -20.1758 C   0  0  0  0  0  0  0  0  0  0  0  0
   -6.7262   -1.2940  -18.8677 C   0  0  0  0  0  0  0  0  0  0  0  0
   -5.8639   -1.0568  -17.8488 N   0  0  0  0  0  0  0  0  0  0  0  0
   -4.7334   -0.4620  -18.1541 C   0  0  0  0  0  0  0  0  0  0  0  0
   -4.3976   -0.0101  -19.4600 C   0  0  0  0  0  0  0  0  0  0  0  0
   -3.2292    0.7395  -19.7209 C   0  0  0  0  0  0  0  0  0  0  0  0
   -2.9997    1.2602  -20.9677 C   0  0  0  0  0  0  0  0  0  0  0  0
   -3.8859    0.9691  -22.0315 C   0  0  0  0  0  0  0  0  0  0  0  0
   -4.9975    0.1946  -21.8137 C   0  0  0  0  0  0  0  0  0  0  0  0
   -5.2997   -0.2749  -20.5090 C   0  0  0  0  0  0  0  0  0  0  0  0
   -5.6373   -0.0794  -22.6481 H   0  0  0  0  0  0  0  0  0  0  0  0
   -3.7048    1.3921  -23.0136 H   0  0  0  0  0  0  0  0  0  0  0  0
   -2.1543    1.9182  -21.1414 H   0  0  0  0  0  0  0  0  0  0  0  0
   -2.5623    0.9359  -18.8870 H   0  0  0  0  0  0  0  0  0  0  0  0
   -4.0152   -0.2906  -17.3518 H   0  0  0  0  0  0  0  0  0  0  0  0
   -7.6495   -1.8175  -18.6134 H   0  0  0  0  0  0  0  0  0  0  0  0
   -7.5534   -0.7075  -21.9945 H   0  0  0  0  0  0  0  0  0  0  0  0
   -8.3110   -1.8613  -20.8693 H   0  0  0  0  0  0  0  0  0  0  0  0
   -7.1757   -3.1422  -23.1134 N   0  0  0  0  0  0  0  0  0  0  0  0
   -8.5839   -2.9469  -23.4433 C   0  0  0  0  0  0  0  0  0  0  0  0
   -9.4943   -3.9905  -22.7980 C   0  0  0  0  0  0  0  0  0  0  0  0
   -9.1915   -5.3938  -23.3493 C   0  0  0  0  0  0  0  0  0  0  0  0
   -7.9574   -6.0408  -22.7713 C   0  0  0  0  0  0  0  0  0  0  0  0
   -7.9439   -7.5499  -21.9182 S   0  0  0  0  0  0  0  0  0  0  0  0
   -6.2229   -7.5338  -21.7978 C   0  0  0  0  0  0  0  0  0  0  0  0
   -5.6915   -6.4305  -22.3893 C   0  0  0  0  0  0  0  0  0  0  0  0
   -6.6894   -5.5715  -22.9490 C   0  0  0  0  0  0  0  0  0  0  0  0
   -6.4703   -4.2788  -23.7045 C   0  0  0  0  0  0  0  0  0  0  0  0
   -5.4100   -4.0194  -23.7468 H   0  0  0  0  0  0  0  0  0  0  0  0
   -6.8215   -4.3837  -24.7367 H   0  0  0  0  0  0  0  0  0  0  0  0
   -4.6258   -6.2260  -22.4322 H   0  0  0  0  0  0  0  0  0  0  0  0
   -5.6692   -8.3381  -21.3313 H   0  0  0  0  0  0  0  0  0  0  0  0
   -9.0260   -5.2956  -24.4313 H   0  0  0  0  0  0  0  0  0  0  0  0
  -10.0480   -6.0498  -23.2684 H   0  0  0  0  0  0  0  0  0  0  0  0
  -10.5387   -3.7264  -22.9966 H   0  0  0  0  0  0  0  0  0  0  0  0
   -9.3757   -3.9591  -21.7063 H   0  0  0  0  0  0  0  0  0  0  0  0
   -8.6825   -2.9974  -24.5377 H   0  0  0  0  0  0  0  0  0  0  0  0
   -8.8886   -1.9401  -23.1428 H   0  0  0  0  0  0  0  0  0  0  0  0
  1  2  2  0
  2  3  1  0
  3  4  1  0
  4  5  2  0
  5  6  1  0
  6  7  2  0
  7  8  1  0
  8  9  2  0
  9 10  1  0
 10 11  2  0
 11 12  1  0
 12 13  2  0
 12 14  1  0
 11 15  1  0
 10 16  1  0
  9 17  1  0
  7 18  1  0
  5 19  1  0
  3 20  1  0
  3 21  1  0
  2 22  1  0
 22 23  1  0
 23 24  1  0
 24 25  1  0
 25 26  1  0
 26 27  1  0
 27 28  1  0
 28 29  2  0
 29 30  1  0
 30 31  1  0
 31 32  1  0
 31 33  1  0
 29 34  1  0
 28 35  1  0
 25 36  1  0
 25 37  1  0
 24 38  1  0
 24 39  1  0
 23 40  1  0
 23 41  1  0
 13  4  1  0
 31 22  1  0
 13  8  1  0
 30 26  2  0
M  END
>  <cnnaffinities>  (70) 
[5.65259, 5.66734, 5.7507, 5.59184, 5.69679]

>  <score>  (70) 
5.65259

>  <index>  (70) 
72

>  <Smiles>  (70) 
O=C(C(c1c(nc(c2c(c(c(c(c12)[H])[H])[H])[H])[H])[H])([H])[H])N1C(C(C(c2sc(c(c2C1([H])[H])[H])[H])([H])[H])([H])[H])([H])[H]

>  <h>  (70) 
<NA>

>  <Training>  (70) 
True

>  <Success>  (70) 
True

>  <enamine_searched>  (70) 
False

>  <enamine_id>  (70) 
nan

$$$$

     RDKit          3D

 50 53  0  0  0  0  0  0  0  0999 V2000
   -5.6146   -3.0855  -21.5677 O   0  0  0  0  0  0  0  0  0  0  0  0
   -6.7619   -2.7892  -21.8704 C   0  0  0  0  0  0  0  0  0  0  0  0
   -7.4007   -1.5160  -21.2977 C   0  0  0  0  0  0  0  0  0  0  0  0
   -6.4997   -0.9934  -20.2210 C   0  0  0  0  0  0  0  0  0  0  0  0
   -6.7558   -1.2718  -18.9068 C   0  0  0  0  0  0  0  0  0  0  0  0
   -5.9360   -0.9843  -17.8662 N   0  0  0  0  0  0  0  0  0  0  0  0
   -4.8263   -0.3444  -18.1447 C   0  0  0  0  0  0  0  0  0  0  0  0
   -4.4444    0.0463  -19.4578 C   0  0  0  0  0  0  0  0  0  0  0  0
   -3.2926    0.8378  -19.7057 C   0  0  0  0  0  0  0  0  0  0  0  0
   -3.0505    1.3428  -20.9565 C   0  0  0  0  0  0  0  0  0  0  0  0
   -3.8878    0.9800  -22.0356 C   0  0  0  0  0  0  0  0  0  0  0  0
   -4.9648    0.1551  -21.8392 C   0  0  0  0  0  0  0  0  0  0  0  0
   -5.3047   -0.2883  -20.5322 C   0  0  0  0  0  0  0  0  0  0  0  0
   -5.6272   -0.0782  -22.6675 H   0  0  0  0  0  0  0  0  0  0  0  0
   -3.6940    1.3826  -23.0268 H   0  0  0  0  0  0  0  0  0  0  0  0
   -2.2639    2.0734  -21.1135 H   0  0  0  0  0  0  0  0  0  0  0  0
   -2.6551    1.1032  -18.8656 H   0  0  0  0  0  0  0  0  0  0  0  0
   -4.1928   -0.0783  -17.2984 H   0  0  0  0  0  0  0  0  0  0  0  0
   -7.7094   -1.7198  -18.6337 H   0  0  0  0  0  0  0  0  0  0  0  0
   -7.5844   -0.7844  -22.0967 H   0  0  0  0  0  0  0  0  0  0  0  0
   -8.3830   -1.7646  -20.8765 H   0  0  0  0  0  0  0  0  0  0  0  0
   -7.5251   -3.5942  -22.6684 N   0  0  0  0  0  0  0  0  0  0  0  0
   -8.6672   -3.1134  -23.4411 C   0  0  0  0  0  0  0  0  0  0  0  0
   -9.7446   -4.1858  -23.5504 C   0  0  0  0  0  0  0  0  0  0  0  0
   -9.1500   -5.4833  -24.0988 C   0  0  0  0  0  0  0  0  0  0  0  0
   -7.9764   -5.9294  -23.2228 C   0  0  0  0  0  0  0  0  0  0  0  0
   -6.9042   -4.8530  -23.0897 C   0  0  1  0  0  0  0  0  0  0  0  0
   -6.0451   -4.6926  -24.3655 C   0  0  0  0  0  0  0  0  0  0  0  0
   -5.2095   -5.9188  -24.6838 C   0  0  0  0  0  0  0  0  0  0  0  0
   -4.0531   -6.1873  -23.9430 C   0  0  0  0  0  0  0  0  0  0  0  0
   -3.2815   -7.3156  -24.2017 C   0  0  0  0  0  0  0  0  0  0  0  0
   -3.6472   -8.1975  -25.2149 C   0  0  0  0  0  0  0  0  0  0  0  0
   -4.7853   -7.9368  -25.9698 C   0  0  0  0  0  0  0  0  0  0  0  0
   -5.5698   -6.8187  -25.6915 C   0  0  0  0  0  0  0  0  0  0  0  0
   -6.4798   -6.6464  -26.2666 H   0  0  0  0  0  0  0  0  0  0  0  0
   -5.0526   -8.6038  -26.7859 H   0  0  0  0  0  0  0  0  0  0  0  0
   -3.0497   -9.0831  -25.4178 H   0  0  0  0  0  0  0  0  0  0  0  0
   -2.3834   -7.5048  -23.6181 H   0  0  0  0  0  0  0  0  0  0  0  0
   -3.7502   -5.4926  -23.1595 H   0  0  0  0  0  0  0  0  0  0  0  0
   -6.6921   -4.4455  -25.2177 H   0  0  0  0  0  0  0  0  0  0  0  0
   -5.3930   -3.8274  -24.2040 H   0  0  0  0  0  0  0  0  0  0  0  0
   -6.2295   -5.1222  -22.2700 H   0  0  0  0  0  0  0  0  0  0  0  0
   -8.3475   -6.1535  -22.2160 H   0  0  0  0  0  0  0  0  0  0  0  0
   -7.4999   -6.8367  -23.6137 H   0  0  0  0  0  0  0  0  0  0  0  0
   -9.9115   -6.2684  -24.1321 H   0  0  0  0  0  0  0  0  0  0  0  0
   -8.8158   -5.3440  -25.1377 H   0  0  0  0  0  0  0  0  0  0  0  0
  -10.1687   -4.3802  -22.5575 H   0  0  0  0  0  0  0  0  0  0  0  0
  -10.5596   -3.8097  -24.1820 H   0  0  0  0  0  0  0  0  0  0  0  0
   -9.0678   -2.2165  -22.9607 H   0  0  0  0  0  0  0  0  0  0  0  0
   -8.3390   -2.8211  -24.4518 H   0  0  0  0  0  0  0  0  0  0  0  0
  1  2  2  0
  2  3  1  0
  3  4  1  0
  4  5  2  0
  5  6  1  0
  6  7  2  0
  7  8  1  0
  8  9  2  0
  9 10  1  0
 10 11  2  0
 11 12  1  0
 12 13  2  0
 12 14  1  0
 11 15  1  0
 10 16  1  0
  9 17  1  0
  7 18  1  0
  5 19  1  0
  3 20  1  0
  3 21  1  0
  2 22  1  0
 22 23  1  0
 23 24  1  0
 24 25  1  0
 25 26  1  0
 26 27  1  0
 27 28  1  0
 28 29  1  0
 29 30  2  0
 30 31  1  0
 31 32  2  0
 32 33  1  0
 33 34  2  0
 34 35  1  0
 33 36  1  0
 32 37  1  0
 31 38  1  0
 30 39  1  0
 28 40  1  0
 28 41  1  0
 27 42  1  1
 26 43  1  0
 26 44  1  0
 25 45  1  0
 25 46  1  0
 24 47  1  0
 24 48  1  0
 23 49  1  0
 23 50  1  0
 13  4  1  0
 27 22  1  0
 34 29  1  0
 13  8  1  0
M  END
>  <cnnaffinities>  (71) 
[5.9597, 5.75481, 5.836]

>  <score>  (71) 
5.9597

>  <index>  (71) 
73

>  <Smiles>  (71) 
O=C(C(c1c(nc(c2c(c(c(c(c12)[H])[H])[H])[H])[H])[H])([H])[H])N1C(C(C(C([C@]1(C(c1c(c(c(c(c1[H])[H])[H])[H])[H])([H])[H])[H])([H])[H])([H])[H])([H])[H])([H])[H]

>  <h>  (71) 
<NA>

>  <Training>  (71) 
True

>  <Success>  (71) 
True

>  <enamine_searched>  (71) 
False

>  <enamine_id>  (71) 
nan

$$$$

     RDKit          3D

 43 47  0  0  0  0  0  0  0  0999 V2000
   -5.6026   -3.2115  -21.8904 O   0  0  0  0  0  0  0  0  0  0  0  0
   -6.6571   -2.6332  -21.9954 C   0  0  0  0  0  0  0  0  0  0  0  0
   -7.6143   -2.7654  -22.9710 N   0  0  0  0  0  0  0  0  0  0  0  0
   -8.6457   -1.7546  -22.8728 C   0  0  1  0  0  0  0  0  0  0  0  0
   -8.7956   -0.7866  -24.0703 C   0  0  0  0  0  0  0  0  0  0  0  0
  -10.1823   -1.4064  -24.3699 C   0  0  2  0  0  0  0  0  0  0  0  0
  -11.3317   -0.4608  -24.3702 C   0  0  0  0  0  0  0  0  0  0  0  0
  -11.4686    0.4574  -23.3282 C   0  0  0  0  0  0  0  0  0  0  0  0
  -12.6594    1.1480  -23.1417 C   0  0  0  0  0  0  0  0  0  0  0  0
  -13.7517    0.8988  -23.9629 C   0  0  0  0  0  0  0  0  0  0  0  0
  -13.6161    0.0122  -25.0266 C   0  0  0  0  0  0  0  0  0  0  0  0
  -12.3832   -0.5742  -25.2654 C   0  0  0  0  0  0  0  0  0  0  0  0
  -12.1625   -1.4761  -26.7370 Cl  0  0  0  0  0  0  0  0  0  0  0  0
  -14.4202   -0.3100  -25.6635 H   0  0  0  0  0  0  0  0  0  0  0  0
  -14.6857    1.4076  -23.7481 H   0  0  0  0  0  0  0  0  0  0  0  0
  -12.7759    1.8455  -22.3179 H   0  0  0  0  0  0  0  0  0  0  0  0
  -10.6500    0.6085  -22.6249 H   0  0  0  0  0  0  0  0  0  0  0  0
  -10.0874   -2.2471  -23.0599 C   0  0  0  0  0  0  0  0  0  0  0  0
  -10.7437   -1.8925  -22.2606 H   0  0  0  0  0  0  0  0  0  0  0  0
  -10.1798   -3.3322  -23.1234 H   0  0  0  0  0  0  0  0  0  0  0  0
  -10.1727   -2.0264  -25.2599 H   0  0  0  0  0  0  0  0  0  0  0  0
   -8.8422    0.2574  -23.7532 H   0  0  0  0  0  0  0  0  0  0  0  0
   -8.0121   -0.8778  -24.8270 H   0  0  0  0  0  0  0  0  0  0  0  0
   -8.3437   -1.0886  -21.5446 C   0  0  0  0  0  0  0  0  0  0  0  0
   -8.9749   -0.2269  -20.9816 O   0  0  0  0  0  0  0  0  0  0  0  0
   -7.1481   -1.6527  -21.1109 N   0  0  0  0  0  0  0  0  0  0  0  0
   -6.3169   -1.0924  -20.1084 C   0  0  0  0  0  0  0  0  0  0  0  0
   -6.5642   -1.3891  -18.7927 C   0  0  0  0  0  0  0  0  0  0  0  0
   -5.6569   -1.1771  -17.8118 N   0  0  0  0  0  0  0  0  0  0  0  0
   -4.5367   -0.5796  -18.1367 C   0  0  0  0  0  0  0  0  0  0  0  0
   -4.2400   -0.0767  -19.4379 C   0  0  0  0  0  0  0  0  0  0  0  0
   -3.0525    0.6413  -19.7276 C   0  0  0  0  0  0  0  0  0  0  0  0
   -2.8317    1.1643  -20.9688 C   0  0  0  0  0  0  0  0  0  0  0  0
   -3.7996    1.0095  -21.9822 C   0  0  0  0  0  0  0  0  0  0  0  0
   -4.9447    0.2895  -21.7453 C   0  0  0  0  0  0  0  0  0  0  0  0
   -5.1812   -0.2933  -20.4627 C   0  0  0  0  0  0  0  0  0  0  0  0
   -5.6655    0.1569  -22.5470 H   0  0  0  0  0  0  0  0  0  0  0  0
   -3.6385    1.4771  -22.9479 H   0  0  0  0  0  0  0  0  0  0  0  0
   -1.9099    1.6971  -21.1797 H   0  0  0  0  0  0  0  0  0  0  0  0
   -2.3386    0.7848  -18.9308 H   0  0  0  0  0  0  0  0  0  0  0  0
   -3.7928   -0.4746  -17.3467 H   0  0  0  0  0  0  0  0  0  0  0  0
   -7.5051   -1.8459  -18.4861 H   0  0  0  0  0  0  0  0  0  0  0  0
   -7.3409   -3.1538  -23.8619 H   0  0  0  0  0  0  0  0  0  0  0  0
  1  2  2  0
  2  3  1  0
  4  3  1  6
  4  5  1  0
  5  6  1  0
  6  7  1  0
  7  8  2  0
  8  9  1  0
  9 10  2  0
 10 11  1  0
 11 12  2  0
 12 13  1  0
 11 14  1  0
 10 15  1  0
  9 16  1  0
  8 17  1  0
  6 18  1  0
 18 19  1  0
 18 20  1  0
  6 21  1  6
  5 22  1  0
  5 23  1  0
  4 24  1  0
 24 25  2  0
 24 26  1  0
 26 27  1  0
 27 28  2  0
 28 29  1  0
 29 30  2  0
 30 31  1  0
 31 32  2  0
 32 33  1  0
 33 34  2  0
 34 35  1  0
 35 36  2  0
 35 37  1  0
 34 38  1  0
 33 39  1  0
 32 40  1  0
 30 41  1  0
 28 42  1  0
  3 43  1  0
 26  2  1  0
 36 27  1  0
 18  4  1  0
 36 31  1  0
 12  7  1  0
M  END
>  <cnnaffinities>  (72) 
[5.85996]

>  <score>  (72) 
5.85996

>  <index>  (72) 
74

>  <Smiles>  (72) 
O=C1N([C@]2(C([C@](c3c(c(c(c(c3Cl)[H])[H])[H])[H])(C2([H])[H])[H])([H])[H])C(=O)N1c1c(nc(c2c(c(c(c(c12)[H])[H])[H])[H])[H])[H])[H]

>  <h>  (72) 
<NA>

>  <Training>  (72) 
True

>  <Success>  (72) 
True

>  <enamine_searched>  (72) 
False

>  <enamine_id>  (72) 
nan

$$$$

     RDKit          3D

 66 71  0  0  0  0  0  0  0  0999 V2000
   -7.1525    3.3367  -21.9317 C   0  0  0  0  0  0  0  0  0  0  0  0
   -8.0697    2.8095  -22.9168 N   0  0  0  0  0  0  0  0  0  0  0  0
   -7.6151    2.2531  -24.0635 C   0  0  0  0  0  0  0  0  0  0  0  0
   -6.4301    2.1820  -24.3559 O   0  0  0  0  0  0  0  0  0  0  0  0
   -8.7274    1.6970  -24.9558 C   0  0  0  0  0  0  0  0  0  0  0  0
   -9.4615    0.6772  -24.2292 N   0  0  0  0  0  0  0  0  0  0  0  0
   -8.7495   -0.5656  -24.0399 C   0  0  0  0  0  0  0  0  0  0  0  0
   -9.1728   -1.3170  -22.7584 C   0  0  2  0  0  0  0  0  0  0  0  0
   -8.5801   -0.6260  -21.5037 C   0  0  0  0  0  0  0  0  0  0  0  0
   -8.9989    0.3770  -20.9660 O   0  0  0  0  0  0  0  0  0  0  0  0
   -7.4662   -1.3344  -21.1065 N   0  0  0  0  0  0  0  0  0  0  0  0
   -6.5350   -0.9185  -20.1239 C   0  0  0  0  0  0  0  0  0  0  0  0
   -6.6772   -1.3388  -18.8265 C   0  0  0  0  0  0  0  0  0  0  0  0
   -5.7695   -1.1140  -17.8470 N   0  0  0  0  0  0  0  0  0  0  0  0
   -4.6888   -0.4442  -18.1590 C   0  0  0  0  0  0  0  0  0  0  0  0
   -4.3993    0.0229  -19.4733 C   0  0  0  0  0  0  0  0  0  0  0  0
   -3.1966    0.7183  -19.7749 C   0  0  0  0  0  0  0  0  0  0  0  0
   -2.9458    1.1625  -21.0445 C   0  0  0  0  0  0  0  0  0  0  0  0
   -3.9089    0.9736  -22.0617 C   0  0  0  0  0  0  0  0  0  0  0  0
   -5.0949    0.3307  -21.7890 C   0  0  0  0  0  0  0  0  0  0  0  0
   -5.3610   -0.1865  -20.4876 C   0  0  0  0  0  0  0  0  0  0  0  0
   -5.8517    0.2652  -22.5669 H   0  0  0  0  0  0  0  0  0  0  0  0
   -3.7329    1.3651  -23.0593 H   0  0  0  0  0  0  0  0  0  0  0  0
   -2.0174    1.6809  -21.2725 H   0  0  0  0  0  0  0  0  0  0  0  0
   -2.4947    0.8988  -18.9662 H   0  0  0  0  0  0  0  0  0  0  0  0
   -3.9723   -0.2415  -17.3603 H   0  0  0  0  0  0  0  0  0  0  0  0
   -7.5543   -1.9162  -18.5418 H   0  0  0  0  0  0  0  0  0  0  0  0
   -7.1489   -2.4571  -21.9520 C   0  0  0  0  0  0  0  0  0  0  0  0
   -8.4523   -2.6886  -22.7210 C   0  0  2  0  0  0  0  0  0  0  0  0
   -8.2166   -3.3545  -24.0750 C   0  0  0  0  0  0  0  0  0  0  0  0
   -7.5026   -4.5975  -23.8810 N   0  0  0  0  0  0  0  0  0  0  0  0
   -7.0004   -5.3443  -24.8974 C   0  0  0  0  0  0  0  0  0  0  0  0
   -5.8992   -7.2196  -25.5362 C   0  0  0  0  0  0  0  0  0  0  0  0
   -6.3296   -6.4607  -24.5372 N   0  0  0  0  0  0  0  0  0  0  0  0
   -6.1568   -6.9453  -26.8790 C   0  0  0  0  0  0  0  0  0  0  0  0
   -6.7883   -5.7355  -27.1272 C   0  0  0  0  0  0  0  0  0  0  0  0
   -7.1857   -4.9091  -26.1585 N   0  0  0  0  0  0  0  0  0  0  0  0
   -6.9928   -5.4008  -28.1452 H   0  0  0  0  0  0  0  0  0  0  0  0
   -5.9346   -7.6816  -27.6489 H   0  0  0  0  0  0  0  0  0  0  0  0
   -5.3339   -8.1053  -25.2472 H   0  0  0  0  0  0  0  0  0  0  0  0
   -7.2666   -4.8737  -22.9399 H   0  0  0  0  0  0  0  0  0  0  0  0
   -9.1753   -3.5443  -24.5714 H   0  0  0  0  0  0  0  0  0  0  0  0
   -7.6305   -2.7086  -24.7419 H   0  0  0  0  0  0  0  0  0  0  0  0
   -9.0549   -3.3815  -22.1321 H   0  0  0  0  0  0  0  0  0  0  0  0
   -6.8411   -3.3101  -21.3357 H   0  0  0  0  0  0  0  0  0  0  0  0
   -6.3157   -2.2315  -22.6382 H   0  0  0  0  0  0  0  0  0  0  0  0
  -10.6874   -1.3708  -22.7301 C   0  0  0  0  0  0  0  0  0  0  0  0
  -11.3515   -2.3300  -21.9557 C   0  0  0  0  0  0  0  0  0  0  0  0
  -12.7321   -2.3491  -21.9026 C   0  0  0  0  0  0  0  0  0  0  0  0
  -13.5200   -3.5487  -20.9197 Cl  0  0  0  0  0  0  0  0  0  0  0  0
  -13.5028   -1.4208  -22.6001 C   0  0  0  0  0  0  0  0  0  0  0  0
  -12.8545   -0.4628  -23.3528 C   0  0  0  0  0  0  0  0  0  0  0  0
  -11.4623   -0.4233  -23.4154 C   0  0  0  0  0  0  0  0  0  0  0  0
  -10.8338    0.6853  -24.2141 C   0  0  0  0  0  0  0  0  0  0  0  0
  -11.4989    1.5356  -24.7819 O   0  0  0  0  0  0  0  0  0  0  0  0
  -13.4054    0.2889  -23.9044 H   0  0  0  0  0  0  0  0  0  0  0  0
  -14.5842   -1.4474  -22.5290 H   0  0  0  0  0  0  0  0  0  0  0  0
  -10.8066   -3.0671  -21.3760 H   0  0  0  0  0  0  0  0  0  0  0  0
   -7.6782   -0.3440  -23.9943 H   0  0  0  0  0  0  0  0  0  0  0  0
   -8.9407   -1.2166  -24.9051 H   0  0  0  0  0  0  0  0  0  0  0  0
   -8.2647    1.2937  -25.8634 H   0  0  0  0  0  0  0  0  0  0  0  0
   -9.4509    2.4645  -25.2390 H   0  0  0  0  0  0  0  0  0  0  0  0
   -9.0064    2.5810  -22.6184 H   0  0  0  0  0  0  0  0  0  0  0  0
   -6.4341    3.9975  -22.4199 H   0  0  0  0  0  0  0  0  0  0  0  0
   -6.5996    2.5344  -21.4223 H   0  0  0  0  0  0  0  0  0  0  0  0
   -7.7205    3.9216  -21.2057 H   0  0  0  0  0  0  0  0  0  0  0  0
  1  2  1  0
  2  3  1  0
  3  4  2  0
  3  5  1  0
  5  6  1  0
  6  7  1  0
  8  7  1  6
  8  9  1  0
  9 10  2  0
  9 11  1  0
 11 12  1  0
 12 13  2  0
 13 14  1  0
 14 15  2  0
 15 16  1  0
 16 17  2  0
 17 18  1  0
 18 19  2  0
 19 20  1  0
 20 21  2  0
 20 22  1  0
 19 23  1  0
 18 24  1  0
 17 25  1  0
 15 26  1  0
 13 27  1  0
 11 28  1  0
 28 29  1  0
 29 30  1  0
 30 31  1  0
 31 32  1  0
 32 33  2  0
 33 34  1  0
 34 35  2  0
 35 36  1  0
 36 37  2  0
 36 38  1  0
 35 39  1  0
 33 40  1  0
 31 41  1  0
 30 42  1  0
 30 43  1  0
 29 44  1  1
 28 45  1  0
 28 46  1  0
  8 47  1  0
 47 48  2  0
 48 49  1  0
 49 50  1  0
 49 51  2  0
 51 52  1  0
 52 53  2  0
 53 54  1  0
 54 55  2  0
 52 56  1  0
 51 57  1  0
 48 58  1  0
  7 59  1  0
  7 60  1  0
  5 61  1  0
  5 62  1  0
  2 63  1  0
  1 64  1  0
  1 65  1  0
  1 66  1  0
 54  6  1  0
 29  8  1  0
 37 32  1  0
 53 47  1  0
 21 12  1  0
 21 16  1  0
M  END
>  <cnnaffinities>  (73) 
[7.19005]

>  <score>  (73) 
7.19005

>  <index>  (73) 
75

>  <Smiles>  (73) 
C(N(C(=O)C(N1C([C@@]2(C(=O)N(c3c(nc(c4c(c(c(c(c34)[H])[H])[H])[H])[H])[H])C([C@@]2(C(N(c2c(nc(c(n2)[H])[H])[H])[H])([H])[H])[H])([H])[H])c2c(c(Cl)c(c(c2C1=O)[H])[H])[H])([H])[H])([H])[H])[H])([H])([H])[H]

>  <h>  (73) 
<NA>

>  <Training>  (73) 
True

>  <Success>  (73) 
True

>  <enamine_searched>  (73) 
False

>  <enamine_id>  (73) 
nan

$$$$

     RDKit          3D

 66 71  0  0  0  0  0  0  0  0999 V2000
   -8.2261   -3.4552  -24.0822 C   0  0  0  0  0  0  0  0  0  0  0  0
   -8.4785   -2.7208  -22.7707 C   0  0  1  0  0  0  0  0  0  0  0  0
   -7.1809   -2.5178  -21.9754 C   0  0  0  0  0  0  0  0  0  0  0  0
   -7.4626   -1.3429  -21.1829 N   0  0  0  0  0  0  0  0  0  0  0  0
   -6.5536   -0.9152  -20.1893 C   0  0  0  0  0  0  0  0  0  0  0  0
   -6.7807   -1.2407  -18.8773 C   0  0  0  0  0  0  0  0  0  0  0  0
   -5.8966   -0.9999  -17.8781 N   0  0  0  0  0  0  0  0  0  0  0  0
   -4.7759   -0.3942  -18.1754 C   0  0  0  0  0  0  0  0  0  0  0  0
   -4.4370    0.0321  -19.4931 C   0  0  0  0  0  0  0  0  0  0  0  0
   -3.2797    0.8054  -19.7501 C   0  0  0  0  0  0  0  0  0  0  0  0
   -3.0565    1.3179  -20.9989 C   0  0  0  0  0  0  0  0  0  0  0  0
   -3.9485    1.0387  -22.0623 C   0  0  0  0  0  0  0  0  0  0  0  0
   -5.0473    0.2415  -21.8455 C   0  0  0  0  0  0  0  0  0  0  0  0
   -5.3483   -0.2367  -20.5390 C   0  0  0  0  0  0  0  0  0  0  0  0
   -5.6770   -0.0511  -22.6830 H   0  0  0  0  0  0  0  0  0  0  0  0
   -3.7673    1.4676  -23.0452 H   0  0  0  0  0  0  0  0  0  0  0  0
   -2.2180    1.9843  -21.1658 H   0  0  0  0  0  0  0  0  0  0  0  0
   -2.6236    1.0114  -18.9063 H   0  0  0  0  0  0  0  0  0  0  0  0
   -4.0594   -0.2035  -17.3676 H   0  0  0  0  0  0  0  0  0  0  0  0
   -7.7125   -1.7454  -18.6196 H   0  0  0  0  0  0  0  0  0  0  0  0
   -8.5216   -0.5914  -21.6257 C   0  0  0  0  0  0  0  0  0  0  0  0
   -8.8770    0.4676  -21.1446 O   0  0  0  0  0  0  0  0  0  0  0  0
   -9.1340   -1.3090  -22.8562 C   0  0  1  0  0  0  0  0  0  0  0  0
   -8.7028   -0.5733  -24.1480 C   0  0  0  0  0  0  0  0  0  0  0  0
   -9.3091    0.7423  -24.2443 N   0  0  0  0  0  0  0  0  0  0  0  0
   -8.5421    1.7920  -24.9006 C   0  0  0  0  0  0  0  0  0  0  0  0
   -7.5471    2.4233  -23.9324 C   0  0  0  0  0  0  0  0  0  0  0  0
   -8.2456    3.2167  -22.8634 N   0  0  0  0  0  4  0  0  0  0  0  0
   -7.4463    3.3073  -21.5996 C   0  0  0  0  0  0  0  0  0  0  0  0
   -6.3103    4.3131  -21.6578 C   0  0  0  0  0  0  0  0  0  0  0  0
   -6.7948    5.6024  -21.9845 O   0  0  0  0  0  0  0  0  0  0  0  0
   -7.4447    5.5889  -23.2425 C   0  0  0  0  0  0  0  0  0  0  0  0
   -8.6381    4.6316  -23.2683 C   0  0  0  0  0  0  0  0  0  0  0  0
   -9.3931    4.9775  -22.5573 H   0  0  0  0  0  0  0  0  0  0  0  0
   -9.0883    4.6124  -24.2648 H   0  0  0  0  0  0  0  0  0  0  0  0
   -6.7316    5.3192  -24.0374 H   0  0  0  0  0  0  0  0  0  0  0  0
   -7.7922    6.6077  -23.4259 H   0  0  0  0  0  0  0  0  0  0  0  0
   -5.8474    4.3786  -20.6676 H   0  0  0  0  0  0  0  0  0  0  0  0
   -5.5418    3.9817  -22.3757 H   0  0  0  0  0  0  0  0  0  0  0  0
   -7.0874    2.3056  -21.3325 H   0  0  0  0  0  0  0  0  0  0  0  0
   -8.1316    3.6343  -20.8159 H   0  0  0  0  0  0  0  0  0  0  0  0
   -9.1097    2.7011  -22.6082 H   0  0  0  0  0  0  0  0  0  0  0  0
   -6.9775    1.6373  -23.4231 H   0  0  0  0  0  0  0  0  0  0  0  0
   -6.8304    3.0504  -24.4657 H   0  0  0  0  0  0  0  0  0  0  0  0
   -8.0061    1.3725  -25.7614 H   0  0  0  0  0  0  0  0  0  0  0  0
   -9.2519    2.5339  -25.2703 H   0  0  0  0  0  0  0  0  0  0  0  0
  -10.6613    0.8874  -24.1013 C   0  0  0  0  0  0  0  0  0  0  0  0
  -11.2683    1.8735  -24.4976 O   0  0  0  0  0  0  0  0  0  0  0  0
  -11.3640   -0.2279  -23.3825 C   0  0  0  0  0  0  0  0  0  0  0  0
  -12.7519   -0.1650  -23.2823 C   0  0  0  0  0  0  0  0  0  0  0  0
  -13.4546   -1.1066  -22.5628 C   0  0  0  0  0  0  0  0  0  0  0  0
  -12.7321   -2.1152  -21.9291 C   0  0  0  0  0  0  0  0  0  0  0  0
  -13.5701   -3.2732  -20.9465 Cl  0  0  0  0  0  0  0  0  0  0  0  0
  -11.3571   -2.2027  -22.0252 C   0  0  0  0  0  0  0  0  0  0  0  0
  -10.6468   -1.2735  -22.7859 C   0  0  0  0  0  0  0  0  0  0  0  0
  -10.8545   -2.9921  -21.4766 H   0  0  0  0  0  0  0  0  0  0  0  0
  -14.5342   -1.0548  -22.4661 H   0  0  0  0  0  0  0  0  0  0  0  0
  -13.2569    0.6560  -23.7715 H   0  0  0  0  0  0  0  0  0  0  0  0
   -7.6141   -0.4677  -24.1763 H   0  0  0  0  0  0  0  0  0  0  0  0
   -8.9862   -1.1871  -25.0163 H   0  0  0  0  0  0  0  0  0  0  0  0
   -6.9562   -3.3579  -21.3123 H   0  0  0  0  0  0  0  0  0  0  0  0
   -6.3083   -2.3861  -22.6396 H   0  0  0  0  0  0  0  0  0  0  0  0
   -9.1289   -3.3437  -22.1524 H   0  0  0  0  0  0  0  0  0  0  0  0
   -9.1436   -3.5636  -24.6701 H   0  0  0  0  0  0  0  0  0  0  0  0
   -7.4889   -2.9177  -24.6919 H   0  0  0  0  0  0  0  0  0  0  0  0
   -7.8235   -4.4534  -23.8772 H   0  0  0  0  0  0  0  0  0  0  0  0
  1  2  1  0
  2  3  1  0
  3  4  1  0
  4  5  1  0
  5  6  2  0
  6  7  1  0
  7  8  2  0
  8  9  1  0
  9 10  2  0
 10 11  1  0
 11 12  2  0
 12 13  1  0
 13 14  2  0
 13 15  1  0
 12 16  1  0
 11 17  1  0
 10 18  1  0
  8 19  1  0
  6 20  1  0
  4 21  1  0
 21 22  2  0
 21 23  1  0
 23 24  1  6
 24 25  1  0
 25 26  1  0
 26 27  1  0
 27 28  1  0
 28 29  1  0
 29 30  1  0
 30 31  1  0
 31 32  1  0
 32 33  1  0
 33 34  1  0
 33 35  1  0
 32 36  1  0
 32 37  1  0
 30 38  1  0
 30 39  1  0
 29 40  1  0
 29 41  1  0
 28 42  1  0
 27 43  1  0
 27 44  1  0
 26 45  1  0
 26 46  1  0
 25 47  1  0
 47 48  2  0
 47 49  1  0
 49 50  2  0
 50 51  1  0
 51 52  2  0
 52 53  1  0
 52 54  1  0
 54 55  2  0
 54 56  1  0
 51 57  1  0
 50 58  1  0
 24 59  1  0
 24 60  1  0
  3 61  1  0
  3 62  1  0
  2 63  1  1
  1 64  1  0
  1 65  1  0
  1 66  1  0
 23  2  1  0
 33 28  1  0
 55 49  1  0
 14  5  1  0
 55 23  1  0
 14  9  1  0
M  CHG  1  28   1
M  END
>  <cnnaffinities>  (74) 
[6.87963]

>  <score>  (74) 
6.87963

>  <index>  (74) 
76

>  <Smiles>  (74) 
C([C@]1(C(N(c2c(nc(c3c(c(c(c(c23)[H])[H])[H])[H])[H])[H])C(=O)[C@]21C(N(C(C([N+]1(C(C(OC(C1([H])[H])([H])[H])([H])[H])([H])[H])[H])([H])[H])([H])[H])C(=O)c1c(c(c(Cl)c(c21)[H])[H])[H])([H])[H])([H])[H])[H])([H])([H])[H]

>  <h>  (74) 
<NA>

>  <Training>  (74) 
True

>  <Success>  (74) 
True

>  <enamine_searched>  (74) 
False

>  <enamine_id>  (74) 
nan

$$$$

     RDKit          3D

 55 60  0  0  0  0  0  0  0  0999 V2000
   -7.9093   -3.5845  -24.0923 C   0  0  0  0  0  0  0  0  0  0  0  0
   -8.2933   -2.8430  -22.8176 C   0  0  1  0  0  0  0  0  0  0  0  0
   -7.0695   -2.6134  -21.9222 C   0  0  0  0  0  0  0  0  0  0  0  0
   -7.3954   -1.4128  -21.1976 N   0  0  0  0  0  0  0  0  0  0  0  0
   -6.5160   -0.9473  -20.1919 C   0  0  0  0  0  0  0  0  0  0  0  0
   -6.7657   -1.2507  -18.8830 C   0  0  0  0  0  0  0  0  0  0  0  0
   -5.9028   -0.9969  -17.8673 N   0  0  0  0  0  0  0  0  0  0  0  0
   -4.7788   -0.3944  -18.1592 C   0  0  0  0  0  0  0  0  0  0  0  0
   -4.4257    0.0236  -19.4719 C   0  0  0  0  0  0  0  0  0  0  0  0
   -3.2627    0.7876  -19.7283 C   0  0  0  0  0  0  0  0  0  0  0  0
   -3.0333    1.3014  -20.9757 C   0  0  0  0  0  0  0  0  0  0  0  0
   -3.9006    0.9828  -22.0482 C   0  0  0  0  0  0  0  0  0  0  0  0
   -4.9985    0.1845  -21.8374 C   0  0  0  0  0  0  0  0  0  0  0  0
   -5.3120   -0.2653  -20.5300 C   0  0  0  0  0  0  0  0  0  0  0  0
   -5.6454   -0.0702  -22.6709 H   0  0  0  0  0  0  0  0  0  0  0  0
   -3.7191    1.4053  -23.0312 H   0  0  0  0  0  0  0  0  0  0  0  0
   -2.1879    1.9599  -21.1467 H   0  0  0  0  0  0  0  0  0  0  0  0
   -2.6213    1.0198  -18.8808 H   0  0  0  0  0  0  0  0  0  0  0  0
   -4.0745   -0.1965  -17.3472 H   0  0  0  0  0  0  0  0  0  0  0  0
   -7.6984   -1.7550  -18.6363 H   0  0  0  0  0  0  0  0  0  0  0  0
   -8.4332   -0.6765  -21.7245 C   0  0  0  0  0  0  0  0  0  0  0  0
   -8.8332    0.3702  -21.2691 O   0  0  0  0  0  0  0  0  0  0  0  0
   -8.9680   -1.4415  -22.9726 C   0  0  1  0  0  0  0  0  0  0  0  0
   -8.4998   -0.7643  -24.2897 C   0  0  0  0  0  0  0  0  0  0  0  0
   -9.1995    0.4730  -24.5728 N   0  0  0  0  0  0  0  0  0  0  0  0
   -8.4633    1.6742  -24.9358 C   0  0  0  0  0  0  0  0  0  0  0  0
   -8.1656    2.5271  -23.7398 C   0  0  0  0  0  0  0  0  0  0  0  0
   -8.9393    3.4197  -23.0873 C   0  0  0  0  0  0  0  0  0  0  0  0
   -8.2112    3.9437  -22.0620 O   0  0  0  0  0  0  0  0  0  0  0  0
   -7.0306    3.2995  -22.1282 C   0  0  0  0  0  0  0  0  0  0  0  0
   -6.9365    2.4529  -23.0955 N   0  0  0  0  0  0  0  0  0  0  0  0
   -6.2824    3.5602  -21.3869 H   0  0  0  0  0  0  0  0  0  0  0  0
   -9.9628    3.7527  -23.1824 H   0  0  0  0  0  0  0  0  0  0  0  0
   -9.0552    2.2187  -25.6790 H   0  0  0  0  0  0  0  0  0  0  0  0
   -7.5189    1.3765  -25.3989 H   0  0  0  0  0  0  0  0  0  0  0  0
  -10.5573    0.5883  -24.4437 C   0  0  0  0  0  0  0  0  0  0  0  0
  -11.1765    1.5400  -24.8973 O   0  0  0  0  0  0  0  0  0  0  0  0
  -11.2324   -0.5054  -23.6773 C   0  0  0  0  0  0  0  0  0  0  0  0
  -12.6275   -0.5020  -23.6311 C   0  0  0  0  0  0  0  0  0  0  0  0
  -13.3110   -1.3920  -22.8309 C   0  0  0  0  0  0  0  0  0  0  0  0
  -12.5561   -2.2676  -22.0595 C   0  0  0  0  0  0  0  0  0  0  0  0
  -13.2005   -3.1094  -21.2378 F   0  0  0  0  0  0  0  0  0  0  0  0
  -11.1778   -2.3027  -22.0951 C   0  0  0  0  0  0  0  0  0  0  0  0
  -10.4859   -1.4426  -22.9524 C   0  0  0  0  0  0  0  0  0  0  0  0
  -10.6608   -2.9877  -21.4331 H   0  0  0  0  0  0  0  0  0  0  0  0
  -14.3943   -1.3991  -22.7660 H   0  0  0  0  0  0  0  0  0  0  0  0
  -13.1537    0.2360  -24.2225 H   0  0  0  0  0  0  0  0  0  0  0  0
   -8.6694   -1.4687  -25.1139 H   0  0  0  0  0  0  0  0  0  0  0  0
   -7.4234   -0.5592  -24.2368 H   0  0  0  0  0  0  0  0  0  0  0  0
   -6.1429   -2.5039  -22.5123 H   0  0  0  0  0  0  0  0  0  0  0  0
   -6.9131   -3.4346  -21.2163 H   0  0  0  0  0  0  0  0  0  0  0  0
   -8.9891   -3.4764  -22.2635 H   0  0  0  0  0  0  0  0  0  0  0  0
   -8.7652   -3.7322  -24.7588 H   0  0  0  0  0  0  0  0  0  0  0  0
   -7.1336   -3.0363  -24.6396 H   0  0  0  0  0  0  0  0  0  0  0  0
   -7.4987   -4.5641  -23.8321 H   0  0  0  0  0  0  0  0  0  0  0  0
  1  2  1  0
  2  3  1  0
  3  4  1  0
  4  5  1  0
  5  6  2  0
  6  7  1  0
  7  8  2  0
  8  9  1  0
  9 10  2  0
 10 11  1  0
 11 12  2  0
 12 13  1  0
 13 14  2  0
 13 15  1  0
 12 16  1  0
 11 17  1  0
 10 18  1  0
  8 19  1  0
  6 20  1  0
  4 21  1  0
 21 22  2  0
 21 23  1  0
 23 24  1  6
 24 25  1  0
 25 26  1  0
 26 27  1  0
 27 28  2  0
 28 29  1  0
 29 30  1  0
 30 31  2  0
 30 32  1  0
 28 33  1  0
 26 34  1  0
 26 35  1  0
 25 36  1  0
 36 37  2  0
 36 38  1  0
 38 39  2  0
 39 40  1  0
 40 41  2  0
 41 42  1  0
 41 43  1  0
 43 44  2  0
 43 45  1  0
 40 46  1  0
 39 47  1  0
 24 48  1  0
 24 49  1  0
  3 50  1  0
  3 51  1  0
  2 52  1  1
  1 53  1  0
  1 54  1  0
  1 55  1  0
 23  2  1  0
 31 27  1  0
 44 38  1  0
 14  5  1  0
 44 23  1  0
 14  9  1  0
M  END
>  <cnnaffinities>  (75) 
[6.55665]

>  <score>  (75) 
6.55665

>  <index>  (75) 
77

>  <Smiles>  (75) 
C([C@]1(C(N(c2c(nc(c3c(c(c(c(c23)[H])[H])[H])[H])[H])[H])C(=O)[C@]21C(N(C(c1c(oc(n1)[H])[H])([H])[H])C(=O)c1c(c(c(F)c(c21)[H])[H])[H])([H])[H])([H])[H])[H])([H])([H])[H]

>  <h>  (75) 
<NA>

>  <Training>  (75) 
True

>  <Success>  (75) 
True

>  <enamine_searched>  (75) 
False

>  <enamine_id>  (75) 
nan

$$$$

     RDKit          3D

 56 60  0  0  0  0  0  0  0  0999 V2000
   -7.2754    3.4175  -21.9253 C   0  0  0  0  0  0  0  0  0  0  0  0
   -8.1428    2.9744  -23.0080 N   0  0  0  0  0  0  0  0  0  0  0  0
   -7.5806    2.2396  -24.0112 C   0  0  0  0  0  0  0  0  0  0  0  0
   -6.3761    2.0532  -24.0997 O   0  0  0  0  0  0  0  0  0  0  0  0
   -8.5526    1.6483  -25.0351 C   0  0  0  0  0  0  0  0  0  0  0  0
   -9.2709    0.5212  -24.4685 N   0  0  0  0  0  0  0  0  0  0  0  0
   -8.5556   -0.7285  -24.2646 C   0  0  0  0  0  0  0  0  0  0  0  0
   -8.9909   -1.4375  -22.9583 C   0  0  2  0  0  0  0  0  0  0  0  0
   -8.4491   -0.6746  -21.7221 C   0  0  0  0  0  0  0  0  0  0  0  0
   -8.8451    0.3834  -21.2776 O   0  0  0  0  0  0  0  0  0  0  0  0
   -7.4102   -1.4031  -21.1965 N   0  0  0  0  0  0  0  0  0  0  0  0
   -6.5293   -0.9359  -20.1936 C   0  0  0  0  0  0  0  0  0  0  0  0
   -6.7718   -1.2482  -18.8873 C   0  0  0  0  0  0  0  0  0  0  0  0
   -5.9108   -0.9965  -17.8704 N   0  0  0  0  0  0  0  0  0  0  0  0
   -4.7864   -0.3930  -18.1665 C   0  0  0  0  0  0  0  0  0  0  0  0
   -4.4384    0.0356  -19.4786 C   0  0  0  0  0  0  0  0  0  0  0  0
   -3.2725    0.7950  -19.7388 C   0  0  0  0  0  0  0  0  0  0  0  0
   -3.0529    1.3208  -20.9838 C   0  0  0  0  0  0  0  0  0  0  0  0
   -3.9344    1.0229  -22.0513 C   0  0  0  0  0  0  0  0  0  0  0  0
   -5.0371    0.2379  -21.8381 C   0  0  0  0  0  0  0  0  0  0  0  0
   -5.3303   -0.2471  -20.5363 C   0  0  0  0  0  0  0  0  0  0  0  0
   -5.6954   -0.0048  -22.6685 H   0  0  0  0  0  0  0  0  0  0  0  0
   -3.7663    1.4568  -23.0320 H   0  0  0  0  0  0  0  0  0  0  0  0
   -2.2052    1.9756  -21.1553 H   0  0  0  0  0  0  0  0  0  0  0  0
   -2.6185    1.0090  -18.8991 H   0  0  0  0  0  0  0  0  0  0  0  0
   -4.0844   -0.1909  -17.3560 H   0  0  0  0  0  0  0  0  0  0  0  0
   -7.7052   -1.7517  -18.6385 H   0  0  0  0  0  0  0  0  0  0  0  0
   -7.0827   -2.6057  -21.9172 C   0  0  0  0  0  0  0  0  0  0  0  0
   -8.3042   -2.8350  -22.8189 C   0  0  2  0  0  0  0  0  0  0  0  0
   -7.9127   -3.5672  -24.0987 C   0  0  0  0  0  0  0  0  0  0  0  0
   -7.4905   -4.5450  -23.8440 H   0  0  0  0  0  0  0  0  0  0  0  0
   -7.1451   -3.0083  -24.6471 H   0  0  0  0  0  0  0  0  0  0  0  0
   -8.7678   -3.7245  -24.7643 H   0  0  0  0  0  0  0  0  0  0  0  0
   -8.9992   -3.4791  -22.2758 H   0  0  0  0  0  0  0  0  0  0  0  0
   -6.1511   -2.4972  -22.5009 H   0  0  0  0  0  0  0  0  0  0  0  0
   -6.9322   -3.4235  -21.2056 H   0  0  0  0  0  0  0  0  0  0  0  0
  -10.5061   -1.4544  -22.9033 C   0  0  0  0  0  0  0  0  0  0  0  0
  -11.1652   -2.3113  -22.0173 C   0  0  0  0  0  0  0  0  0  0  0  0
  -12.5443   -2.3065  -21.9407 C   0  0  0  0  0  0  0  0  0  0  0  0
  -13.3255   -3.3839  -20.8258 Cl  0  0  0  0  0  0  0  0  0  0  0  0
  -13.3213   -1.4478  -22.7173 C   0  0  0  0  0  0  0  0  0  0  0  0
  -12.6718   -0.5600  -23.5485 C   0  0  0  0  0  0  0  0  0  0  0  0
  -11.2800   -0.5361  -23.6213 C   0  0  0  0  0  0  0  0  0  0  0  0
  -10.6387    0.5608  -24.4182 C   0  0  0  0  0  0  0  0  0  0  0  0
  -11.2946    1.4441  -24.9481 O   0  0  0  0  0  0  0  0  0  0  0  0
  -13.2208    0.1594  -24.1422 H   0  0  0  0  0  0  0  0  0  0  0  0
  -14.4034   -1.4603  -22.6368 H   0  0  0  0  0  0  0  0  0  0  0  0
  -10.6134   -2.9731  -21.3592 H   0  0  0  0  0  0  0  0  0  0  0  0
   -7.4798   -0.5242  -24.2445 H   0  0  0  0  0  0  0  0  0  0  0  0
   -8.7486   -1.4066  -25.1070 H   0  0  0  0  0  0  0  0  0  0  0  0
   -7.9743    1.3295  -25.9096 H   0  0  0  0  0  0  0  0  0  0  0  0
   -9.2958    2.3836  -25.3583 H   0  0  0  0  0  0  0  0  0  0  0  0
   -9.1189    2.8243  -22.7818 H   0  0  0  0  0  0  0  0  0  0  0  0
   -7.8759    3.8883  -21.1439 H   0  0  0  0  0  0  0  0  0  0  0  0
   -6.7127    2.5686  -21.5068 H   0  0  0  0  0  0  0  0  0  0  0  0
   -6.5630    4.1607  -22.2965 H   0  0  0  0  0  0  0  0  0  0  0  0
  1  2  1  0
  2  3  1  0
  3  4  2  0
  3  5  1  0
  5  6  1  0
  6  7  1  0
  8  7  1  6
  8  9  1  0
  9 10  2  0
  9 11  1  0
 11 12  1  0
 12 13  2  0
 13 14  1  0
 14 15  2  0
 15 16  1  0
 16 17  2  0
 17 18  1  0
 18 19  2  0
 19 20  1  0
 20 21  2  0
 20 22  1  0
 19 23  1  0
 18 24  1  0
 17 25  1  0
 15 26  1  0
 13 27  1  0
 11 28  1  0
 28 29  1  0
 29 30  1  0
 30 31  1  0
 30 32  1  0
 30 33  1  0
 29 34  1  1
 28 35  1  0
 28 36  1  0
  8 37  1  0
 37 38  2  0
 38 39  1  0
 39 40  1  0
 39 41  2  0
 41 42  1  0
 42 43  2  0
 43 44  1  0
 44 45  2  0
 42 46  1  0
 41 47  1  0
 38 48  1  0
  7 49  1  0
  7 50  1  0
  5 51  1  0
  5 52  1  0
  2 53  1  0
  1 54  1  0
  1 55  1  0
  1 56  1  0
 44  6  1  0
 29  8  1  0
 43 37  1  0
 21 12  1  0
 21 16  1  0
M  END
>  <cnnaffinities>  (76) 
[6.61694]

>  <score>  (76) 
6.61694

>  <index>  (76) 
78

>  <Smiles>  (76) 
C(N(C(=O)C(N1C([C@@]2(C(=O)N(c3c(nc(c4c(c(c(c(c34)[H])[H])[H])[H])[H])[H])C([C@@]2(C([H])([H])[H])[H])([H])[H])c2c(c(Cl)c(c(c2C1=O)[H])[H])[H])([H])[H])([H])[H])[H])([H])([H])[H]

>  <h>  (76) 
<NA>

>  <Training>  (76) 
True

>  <Success>  (76) 
True

>  <enamine_searched>  (76) 
False

>  <enamine_id>  (76) 
nan

$$$$

     RDKit          3D

 45 49  0  0  0  0  0  0  0  0999 V2000
  -10.5346   -2.6725  -22.4625 C   0  0  0  0  0  0  0  0  0  0  0  0
   -9.1398   -2.4202  -22.1805 N   0  0  0  0  0  0  0  0  0  0  0  0
   -8.6999   -1.3350  -21.4612 C   0  0  0  0  0  0  0  0  0  0  0  0
   -9.3480   -0.4033  -21.0449 O   0  0  0  0  0  0  0  0  0  0  0  0
   -7.3120   -1.5287  -21.3119 N   0  0  0  0  0  0  0  0  0  0  0  0
   -6.5196   -1.0041  -20.2610 C   0  0  0  0  0  0  0  0  0  0  0  0
   -6.8099   -1.2699  -18.9461 C   0  0  0  0  0  0  0  0  0  0  0  0
   -5.9839   -0.9696  -17.9123 N   0  0  0  0  0  0  0  0  0  0  0  0
   -4.8564   -0.3644  -18.1977 C   0  0  0  0  0  0  0  0  0  0  0  0
   -4.4867    0.0319  -19.5126 C   0  0  0  0  0  0  0  0  0  0  0  0
   -3.3273    0.8092  -19.7383 C   0  0  0  0  0  0  0  0  0  0  0  0
   -3.0827    1.3338  -20.9784 C   0  0  0  0  0  0  0  0  0  0  0  0
   -3.9462    1.0379  -22.0573 C   0  0  0  0  0  0  0  0  0  0  0  0
   -5.0444    0.2396  -21.8770 C   0  0  0  0  0  0  0  0  0  0  0  0
   -5.3422   -0.2764  -20.5849 C   0  0  0  0  0  0  0  0  0  0  0  0
   -5.7006    0.0084  -22.7118 H   0  0  0  0  0  0  0  0  0  0  0  0
   -3.7607    1.4780  -23.0341 H   0  0  0  0  0  0  0  0  0  0  0  0
   -2.2547    2.0181  -21.1297 H   0  0  0  0  0  0  0  0  0  0  0  0
   -2.6926    1.0168  -18.8818 H   0  0  0  0  0  0  0  0  0  0  0  0
   -4.1772   -0.1161  -17.3774 H   0  0  0  0  0  0  0  0  0  0  0  0
   -7.7444   -1.7577  -18.6788 H   0  0  0  0  0  0  0  0  0  0  0  0
   -6.8434   -2.5713  -22.1085 C   0  0  0  0  0  0  0  0  0  0  0  0
   -5.6921   -2.9246  -22.2150 O   0  0  0  0  0  0  0  0  0  0  0  0
   -8.0603   -3.1643  -22.7812 C   0  0  0  0  0  0  0  0  0  0  0  0
   -7.9957   -3.2398  -24.3261 C   0  0  0  0  0  0  0  0  0  0  0  0
   -8.0118   -4.7191  -24.2653 N   0  0  0  0  0  0  0  0  0  0  0  0
   -9.2721   -5.5548  -25.0019 S   0  0  0  0  0  0  0  0  0  0  0  0
  -10.5368   -4.9140  -24.6588 O   0  0  0  0  0  0  0  0  0  0  0  0
   -9.0476   -6.9564  -24.6984 O   0  0  0  0  0  0  0  0  0  0  0  0
   -9.0102   -5.2814  -26.7330 C   0  0  0  0  0  0  0  0  0  0  0  0
   -9.7414   -4.1416  -27.3866 C   0  0  0  0  0  0  0  0  0  0  0  0
  -10.2182   -5.5467  -27.5882 C   0  0  0  0  0  0  0  0  0  0  0  0
  -10.0569   -6.0161  -28.5555 H   0  0  0  0  0  0  0  0  0  0  0  0
  -11.1228   -5.8529  -27.0700 H   0  0  0  0  0  0  0  0  0  0  0  0
   -9.2574   -3.6499  -28.2276 H   0  0  0  0  0  0  0  0  0  0  0  0
  -10.3327   -3.5056  -26.7317 H   0  0  0  0  0  0  0  0  0  0  0  0
   -8.0343   -5.5611  -27.1113 H   0  0  0  0  0  0  0  0  0  0  0  0
   -8.0785   -4.7063  -22.7734 C   0  0  0  0  0  0  0  0  0  0  0  0
   -7.1734   -5.1407  -22.3477 H   0  0  0  0  0  0  0  0  0  0  0  0
   -8.9657   -5.1799  -22.3440 H   0  0  0  0  0  0  0  0  0  0  0  0
   -8.8401   -2.7769  -24.8469 H   0  0  0  0  0  0  0  0  0  0  0  0
   -7.0476   -2.8702  -24.7212 H   0  0  0  0  0  0  0  0  0  0  0  0
  -10.7542   -2.5330  -23.5254 H   0  0  0  0  0  0  0  0  0  0  0  0
  -11.1316   -1.9764  -21.8730 H   0  0  0  0  0  0  0  0  0  0  0  0
  -10.7965   -3.6989  -22.1917 H   0  0  0  0  0  0  0  0  0  0  0  0
  1  2  1  0
  2  3  1  0
  3  4  2  0
  3  5  1  0
  5  6  1  0
  6  7  2  0
  7  8  1  0
  8  9  2  0
  9 10  1  0
 10 11  2  0
 11 12  1  0
 12 13  2  0
 13 14  1  0
 14 15  2  0
 14 16  1  0
 13 17  1  0
 12 18  1  0
 11 19  1  0
  9 20  1  0
  7 21  1  0
  5 22  1  0
 22 23  2  0
 22 24  1  0
 24 25  1  0
 25 26  1  0
 26 27  1  0
 27 28  2  0
 27 29  2  0
 27 30  1  0
 30 31  1  0
 31 32  1  0
 32 33  1  0
 32 34  1  0
 31 35  1  0
 31 36  1  0
 30 37  1  0
 26 38  1  0
 38 39  1  0
 38 40  1  0
 25 41  1  0
 25 42  1  0
  1 43  1  0
  1 44  1  0
  1 45  1  0
 24  2  1  0
 32 30  1  0
 15  6  1  0
 38 24  1  0
 15 10  1  0
M  END
>  <cnnaffinities>  (77) 
[5.46606, 5.4632, 5.47987, 5.66417, 5.64446, 5.64568, 5.65963]

>  <score>  (77) 
5.46606

>  <index>  (77) 
79

>  <Smiles>  (77) 
C(N1C(=O)N(c2c(nc(c3c(c(c(c(c23)[H])[H])[H])[H])[H])[H])C(=O)C21C(N(S(=O)(=O)C1(C(C1([H])[H])([H])[H])[H])C2([H])[H])([H])[H])([H])([H])[H]

>  <h>  (77) 
<NA>

>  <Training>  (77) 
True

>  <Success>  (77) 
True

>  <enamine_searched>  (77) 
False

>  <enamine_id>  (77) 
nan

$$$$

     RDKit          3D

 60 65  0  0  0  0  0  0  0  0999 V2000
   -8.3032    2.2577  -28.8965 C   0  0  0  0  0  0  0  0  0  0  0  0
   -8.6303    2.2850  -27.4828 N   0  0  0  0  0  0  0  0  0  0  0  0
   -7.8814    1.5186  -26.6396 C   0  0  0  0  0  0  0  0  0  0  0  0
   -6.9086    0.8762  -27.0029 O   0  0  0  0  0  0  0  0  0  0  0  0
   -8.2859    1.5876  -25.1830 C   0  0  0  0  0  0  0  0  0  0  0  0
   -9.0461    0.5008  -24.6553 N   0  0  0  0  0  0  0  0  0  0  0  0
   -8.3656   -0.7491  -24.3774 C   0  0  0  0  0  0  0  0  0  0  0  0
   -8.8804   -1.3953  -23.0682 C   0  0  2  0  0  0  0  0  0  0  0  0
   -8.3553   -0.6294  -21.8255 C   0  0  0  0  0  0  0  0  0  0  0  0
   -8.6865    0.4788  -21.4479 O   0  0  0  0  0  0  0  0  0  0  0  0
   -7.4198   -1.4145  -21.1903 N   0  0  0  0  0  0  0  0  0  0  0  0
   -6.5280   -0.9516  -20.1933 C   0  0  0  0  0  0  0  0  0  0  0  0
   -6.7632   -1.2626  -18.8823 C   0  0  0  0  0  0  0  0  0  0  0  0
   -5.9049   -1.0014  -17.8661 N   0  0  0  0  0  0  0  0  0  0  0  0
   -4.7821   -0.3961  -18.1616 C   0  0  0  0  0  0  0  0  0  0  0  0
   -4.4366    0.0224  -19.4786 C   0  0  0  0  0  0  0  0  0  0  0  0
   -3.2749    0.7959  -19.7344 C   0  0  0  0  0  0  0  0  0  0  0  0
   -3.0484    1.3116  -20.9792 C   0  0  0  0  0  0  0  0  0  0  0  0
   -3.9092    0.9847  -22.0528 C   0  0  0  0  0  0  0  0  0  0  0  0
   -5.0034    0.1826  -21.8447 C   0  0  0  0  0  0  0  0  0  0  0  0
   -5.3206   -0.2706  -20.5340 C   0  0  0  0  0  0  0  0  0  0  0  0
   -5.6255   -0.1122  -22.6810 H   0  0  0  0  0  0  0  0  0  0  0  0
   -3.7253    1.4008  -23.0381 H   0  0  0  0  0  0  0  0  0  0  0  0
   -2.2129    1.9852  -21.1509 H   0  0  0  0  0  0  0  0  0  0  0  0
   -2.6292    1.0293  -18.8937 H   0  0  0  0  0  0  0  0  0  0  0  0
   -4.0833   -0.1810  -17.3517 H   0  0  0  0  0  0  0  0  0  0  0  0
   -7.6908   -1.7703  -18.6283 H   0  0  0  0  0  0  0  0  0  0  0  0
   -7.0995   -2.6334  -21.8876 C   0  0  0  0  0  0  0  0  0  0  0  0
   -8.2741   -2.8192  -22.8538 C   0  0  2  0  0  0  0  0  0  0  0  0
   -7.8534   -3.6095  -24.0857 C   0  0  0  0  0  0  0  0  0  0  0  0
   -8.6820   -3.7574  -24.7852 H   0  0  0  0  0  0  0  0  0  0  0  0
   -7.0367   -3.1027  -24.6119 H   0  0  0  0  0  0  0  0  0  0  0  0
   -7.4872   -4.5929  -23.7750 H   0  0  0  0  0  0  0  0  0  0  0  0
   -9.0306   -3.4090  -22.3346 H   0  0  0  0  0  0  0  0  0  0  0  0
   -7.0212   -3.4516  -21.1667 H   0  0  0  0  0  0  0  0  0  0  0  0
   -6.1342   -2.5665  -22.4193 H   0  0  0  0  0  0  0  0  0  0  0  0
  -10.4004   -1.3436  -23.0815 C   0  0  0  0  0  0  0  0  0  0  0  0
  -11.1238   -2.1350  -22.1821 C   0  0  0  0  0  0  0  0  0  0  0  0
  -12.5049   -2.1010  -22.1749 C   0  0  0  0  0  0  0  0  0  0  0  0
  -13.3623   -3.1187  -21.0587 Cl  0  0  0  0  0  0  0  0  0  0  0  0
  -13.2241   -1.2700  -23.0314 C   0  0  0  0  0  0  0  0  0  0  0  0
  -12.5162   -0.4418  -23.8773 C   0  0  0  0  0  0  0  0  0  0  0  0
  -11.1208   -0.4551  -23.8922 C   0  0  0  0  0  0  0  0  0  0  0  0
  -10.4168    0.5581  -24.7321 C   0  0  0  0  0  0  0  0  0  0  0  0
  -10.9971    1.4104  -25.3900 O   0  0  0  0  0  0  0  0  0  0  0  0
  -13.0270    0.2522  -24.5320 H   0  0  0  0  0  0  0  0  0  0  0  0
  -14.3092   -1.2609  -23.0080 H   0  0  0  0  0  0  0  0  0  0  0  0
  -10.6262   -2.7802  -21.4673 H   0  0  0  0  0  0  0  0  0  0  0  0
   -8.5316   -1.4416  -25.2119 H   0  0  0  0  0  0  0  0  0  0  0  0
   -7.2918   -0.5548  -24.3380 H   0  0  0  0  0  0  0  0  0  0  0  0
   -8.4480    2.9362  -24.5560 C   0  0  0  0  0  0  0  0  0  0  0  0
   -7.2038    2.1368  -24.2986 C   0  0  0  0  0  0  0  0  0  0  0  0
   -6.2807    2.4120  -24.8032 H   0  0  0  0  0  0  0  0  0  0  0  0
   -7.1283    1.6775  -23.3175 H   0  0  0  0  0  0  0  0  0  0  0  0
   -8.4036    3.8026  -25.2139 H   0  0  0  0  0  0  0  0  0  0  0  0
   -9.1599    2.9696  -23.7373 H   0  0  0  0  0  0  0  0  0  0  0  0
   -9.5981    2.4329  -27.2082 H   0  0  0  0  0  0  0  0  0  0  0  0
   -8.8584    3.0453  -29.4102 H   0  0  0  0  0  0  0  0  0  0  0  0
   -8.5094    1.2768  -29.3563 H   0  0  0  0  0  0  0  0  0  0  0  0
   -7.2412    2.4919  -29.0072 H   0  0  0  0  0  0  0  0  0  0  0  0
  1  2  1  0
  2  3  1  0
  3  4  2  0
  3  5  1  0
  5  6  1  0
  6  7  1  0
  8  7  1  6
  8  9  1  0
  9 10  2  0
  9 11  1  0
 11 12  1  0
 12 13  2  0
 13 14  1  0
 14 15  2  0
 15 16  1  0
 16 17  2  0
 17 18  1  0
 18 19  2  0
 19 20  1  0
 20 21  2  0
 20 22  1  0
 19 23  1  0
 18 24  1  0
 17 25  1  0
 15 26  1  0
 13 27  1  0
 11 28  1  0
 28 29  1  0
 29 30  1  0
 30 31  1  0
 30 32  1  0
 30 33  1  0
 29 34  1  1
 28 35  1  0
 28 36  1  0
  8 37  1  0
 37 38  2  0
 38 39  1  0
 39 40  1  0
 39 41  2  0
 41 42  1  0
 42 43  2  0
 43 44  1  0
 44 45  2  0
 42 46  1  0
 41 47  1  0
 38 48  1  0
  7 49  1  0
  7 50  1  0
  5 51  1  0
 51 52  1  0
 52 53  1  0
 52 54  1  0
 51 55  1  0
 51 56  1  0
  2 57  1  0
  1 58  1  0
  1 59  1  0
  1 60  1  0
 52  5  1  0
 44  6  1  0
 29  8  1  0
 43 37  1  0
 21 12  1  0
 21 16  1  0
M  END
>  <cnnaffinities>  (78) 
[6.56646, 6.36922, 6.40682]

>  <score>  (78) 
6.56646

>  <index>  (78) 
80

>  <Smiles>  (78) 
C(N(C(=O)C1(N2C([C@@]3(C(=O)N(c4c(nc(c5c(c(c(c(c45)[H])[H])[H])[H])[H])[H])C([C@@]3(C([H])([H])[H])[H])([H])[H])c3c(c(Cl)c(c(c3C2=O)[H])[H])[H])([H])[H])C(C1([H])[H])([H])[H])[H])([H])([H])[H]

>  <h>  (78) 
<NA>

>  <Training>  (78) 
True

>  <Success>  (78) 
True

>  <enamine_searched>  (78) 
False

>  <enamine_id>  (78) 
nan

$$$$

     RDKit          3D

 36 38  0  0  0  0  0  0  0  0999 V2000
   -8.5332    0.7465  -21.4234 O   0  0  0  0  0  0  0  0  0  0  0  0
   -8.3931   -0.3670  -21.8944 C   0  0  0  0  0  0  0  0  0  0  0  0
   -7.4553   -1.4291  -21.3019 C   0  0  0  0  0  0  0  0  0  0  0  0
   -6.4995   -0.9960  -20.2261 C   0  0  0  0  0  0  0  0  0  0  0  0
   -6.7558   -1.2652  -18.9116 C   0  0  0  0  0  0  0  0  0  0  0  0
   -5.9255   -0.9932  -17.8728 N   0  0  0  0  0  0  0  0  0  0  0  0
   -4.8104   -0.3687  -18.1537 C   0  0  0  0  0  0  0  0  0  0  0  0
   -4.4376    0.0343  -19.4651 C   0  0  0  0  0  0  0  0  0  0  0  0
   -3.2842    0.8257  -19.7135 C   0  0  0  0  0  0  0  0  0  0  0  0
   -3.0605    1.3511  -20.9598 C   0  0  0  0  0  0  0  0  0  0  0  0
   -3.9174    1.0181  -22.0335 C   0  0  0  0  0  0  0  0  0  0  0  0
   -4.9938    0.1940  -21.8408 C   0  0  0  0  0  0  0  0  0  0  0  0
   -5.3109   -0.2771  -20.5359 C   0  0  0  0  0  0  0  0  0  0  0  0
   -5.6893    0.0010  -22.6543 H   0  0  0  0  0  0  0  0  0  0  0  0
   -3.7398    1.4430  -23.0196 H   0  0  0  0  0  0  0  0  0  0  0  0
   -2.2736    2.0811  -21.1146 H   0  0  0  0  0  0  0  0  0  0  0  0
   -2.6218    1.0540  -18.8818 H   0  0  0  0  0  0  0  0  0  0  0  0
   -4.1631   -0.1247  -17.3106 H   0  0  0  0  0  0  0  0  0  0  0  0
   -7.7130   -1.7040  -18.6353 H   0  0  0  0  0  0  0  0  0  0  0  0
   -6.8815   -1.8801  -22.1204 H   0  0  0  0  0  0  0  0  0  0  0  0
   -8.1113   -2.2068  -20.8979 H   0  0  0  0  0  0  0  0  0  0  0  0
   -9.0578   -0.7643  -23.0471 N   0  0  0  0  0  0  0  0  0  0  0  0
   -9.9872    0.1866  -23.6298 C   0  0  0  0  0  0  0  0  0  0  0  0
  -11.3680    0.1831  -23.0264 C   0  0  0  0  0  0  0  0  0  0  0  0
  -12.0134   -0.8008  -22.3922 C   0  0  0  0  0  0  0  0  0  0  0  0
  -11.5686   -2.1805  -22.1252 C   0  0  0  0  0  0  0  0  0  0  0  0
  -10.4490   -2.7771  -22.5416 C   0  0  0  0  0  0  0  0  0  0  0  0
   -9.3523   -2.1535  -23.3740 C   0  0  0  0  0  0  0  0  0  0  0  0
   -8.4427   -2.7603  -23.3029 H   0  0  0  0  0  0  0  0  0  0  0  0
   -9.6319   -2.1663  -24.4371 H   0  0  0  0  0  0  0  0  0  0  0  0
  -10.3030   -3.8235  -22.2787 H   0  0  0  0  0  0  0  0  0  0  0  0
  -12.2802   -2.7729  -21.5503 H   0  0  0  0  0  0  0  0  0  0  0  0
  -13.0145   -0.5818  -22.0211 H   0  0  0  0  0  0  0  0  0  0  0  0
  -11.8759    1.1420  -23.1134 H   0  0  0  0  0  0  0  0  0  0  0  0
  -10.0434   -0.0192  -24.7102 H   0  0  0  0  0  0  0  0  0  0  0  0
   -9.5521    1.1821  -23.5167 H   0  0  0  0  0  0  0  0  0  0  0  0
  1  2  2  0
  2  3  1  0
  3  4  1  0
  4  5  2  0
  5  6  1  0
  6  7  2  0
  7  8  1  0
  8  9  2  0
  9 10  1  0
 10 11  2  0
 11 12  1  0
 12 13  2  0
 12 14  1  0
 11 15  1  0
 10 16  1  0
  9 17  1  0
  7 18  1  0
  5 19  1  0
  3 20  1  0
  3 21  1  0
  2 22  1  0
 22 23  1  0
 23 24  1  0
 24 25  2  0
 25 26  1  0
 26 27  2  0
 27 28  1  0
 28 29  1  0
 28 30  1  0
 27 31  1  0
 26 32  1  0
 25 33  1  0
 24 34  1  0
 23 35  1  0
 23 36  1  0
 13  4  1  0
 28 22  1  0
 13  8  1  0
M  END
>  <cnnaffinities>  (79) 
[5.10027, 5.09689, 5.0781, 5.07791]

>  <score>  (79) 
5.10027

>  <index>  (79) 
81

>  <Smiles>  (79) 
O=C(C(c1c(nc(c2c(c(c(c(c12)[H])[H])[H])[H])[H])[H])([H])[H])N1C(C(=C(C(=C(C1([H])[H])[H])[H])[H])[H])([H])[H]

>  <h>  (79) 
<NA>

>  <Training>  (79) 
True

>  <Success>  (79) 
True

>  <enamine_searched>  (79) 
False

>  <enamine_id>  (79) 
nan

$$$$

     RDKit          3D

 54 57  0  0  0  0  0  0  0  0999 V2000
  -10.6872    0.3581  -25.3896 C   0  0  0  0  0  0  0  0  0  0  0  0
   -9.8142   -0.6301  -24.9049 O   0  0  0  0  0  0  0  0  0  0  0  0
   -8.4897   -0.5230  -25.2042 C   0  0  0  0  0  0  0  0  0  0  0  0
   -7.9575    0.5107  -25.9768 C   0  0  0  0  0  0  0  0  0  0  0  0
   -6.5894    0.5411  -26.2396 C   0  0  0  0  0  0  0  0  0  0  0  0
   -5.7664   -0.4525  -25.7256 C   0  0  0  0  0  0  0  0  0  0  0  0
   -6.3116   -1.4702  -24.9403 C   0  0  0  0  0  0  0  0  0  0  0  0
   -7.6724   -1.5393  -24.6716 C   0  0  0  0  0  0  0  0  0  0  0  0
   -8.3206   -2.6523  -23.8384 C   0  0  1  0  0  0  0  0  0  0  0  0
   -9.1553   -3.6365  -24.6821 C   0  0  0  0  0  0  0  0  0  0  0  0
   -8.4076   -4.8444  -25.2624 C   0  0  1  0  0  0  0  0  0  0  0  0
   -7.5060   -4.5225  -26.4580 C   0  0  0  0  0  0  0  0  0  0  0  0
   -6.6823   -3.8514  -26.1955 H   0  0  0  0  0  0  0  0  0  0  0  0
   -7.0676   -5.4377  -26.8727 H   0  0  0  0  0  0  0  0  0  0  0  0
   -8.0782   -4.0416  -27.2589 H   0  0  0  0  0  0  0  0  0  0  0  0
   -7.6719   -5.5407  -24.1156 C   0  0  0  0  0  0  0  0  0  0  0  0
   -6.7219   -4.5958  -23.4046 C   0  0  0  0  0  0  0  0  0  0  0  0
   -7.3819   -3.3693  -22.9654 N   0  0  0  0  0  0  0  0  0  0  0  0
   -6.7641   -2.7606  -21.9026 C   0  0  0  0  0  0  0  0  0  0  0  0
   -5.7419   -3.2140  -21.4089 O   0  0  0  0  0  0  0  0  0  0  0  0
   -7.4017   -1.5010  -21.3103 C   0  0  0  0  0  0  0  0  0  0  0  0
   -6.5039   -0.9895  -20.2286 C   0  0  0  0  0  0  0  0  0  0  0  0
   -6.7588   -1.2694  -18.9151 C   0  0  0  0  0  0  0  0  0  0  0  0
   -5.9442   -0.9756  -17.8724 N   0  0  0  0  0  0  0  0  0  0  0  0
   -4.8356   -0.3326  -18.1495 C   0  0  0  0  0  0  0  0  0  0  0  0
   -4.4501    0.0519  -19.4631 C   0  0  0  0  0  0  0  0  0  0  0  0
   -3.3012    0.8476  -19.7087 C   0  0  0  0  0  0  0  0  0  0  0  0
   -3.0557    1.3515  -20.9586 C   0  0  0  0  0  0  0  0  0  0  0  0
   -3.8912    0.9862  -22.0377 C   0  0  0  0  0  0  0  0  0  0  0  0
   -4.9669    0.1592  -21.8450 C   0  0  0  0  0  0  0  0  0  0  0  0
   -5.3075   -0.2872  -20.5384 C   0  0  0  0  0  0  0  0  0  0  0  0
   -5.6333   -0.0655  -22.6748 H   0  0  0  0  0  0  0  0  0  0  0  0
   -3.6955    1.3894  -23.0291 H   0  0  0  0  0  0  0  0  0  0  0  0
   -2.2700    2.0816  -21.1159 H   0  0  0  0  0  0  0  0  0  0  0  0
   -2.6685    1.1209  -18.8670 H   0  0  0  0  0  0  0  0  0  0  0  0
   -4.2077   -0.0581  -17.3017 H   0  0  0  0  0  0  0  0  0  0  0  0
   -7.7093   -1.7254  -18.6451 H   0  0  0  0  0  0  0  0  0  0  0  0
   -7.5914   -0.7642  -22.1002 H   0  0  0  0  0  0  0  0  0  0  0  0
   -8.3830   -1.7725  -20.9009 H   0  0  0  0  0  0  0  0  0  0  0  0
   -6.3206   -5.0614  -22.5028 H   0  0  0  0  0  0  0  0  0  0  0  0
   -5.8599   -4.3636  -24.0486 H   0  0  0  0  0  0  0  0  0  0  0  0
   -8.4095   -5.9118  -23.3936 H   0  0  0  0  0  0  0  0  0  0  0  0
   -7.1045   -6.4098  -24.4763 H   0  0  0  0  0  0  0  0  0  0  0  0
   -9.1796   -5.5373  -25.6250 H   0  0  0  0  0  0  0  0  0  0  0  0
   -9.6515   -3.0662  -25.4738 H   0  0  0  0  0  0  0  0  0  0  0  0
   -9.9389   -4.0263  -24.0217 H   0  0  0  0  0  0  0  0  0  0  0  0
   -9.0457   -2.1550  -23.1809 H   0  0  0  0  0  0  0  0  0  0  0  0
   -5.6514   -2.2380  -24.5397 H   0  0  0  0  0  0  0  0  0  0  0  0
   -4.7002   -0.4479  -25.9304 H   0  0  0  0  0  0  0  0  0  0  0  0
   -6.1790    1.3451  -26.8499 H   0  0  0  0  0  0  0  0  0  0  0  0
   -8.6089    1.2808  -26.3793 H   0  0  0  0  0  0  0  0  0  0  0  0
  -11.6763    0.0782  -25.0241 H   0  0  0  0  0  0  0  0  0  0  0  0
  -10.6925    0.3901  -26.4875 H   0  0  0  0  0  0  0  0  0  0  0  0
  -10.4176    1.3512  -25.0069 H   0  0  0  0  0  0  0  0  0  0  0  0
  1  2  1  0
  2  3  1  0
  3  4  2  0
  4  5  1  0
  5  6  2  0
  6  7  1  0
  7  8  2  0
  8  9  1  0
  9 10  1  0
 10 11  1  0
 11 12  1  0
 12 13  1  0
 12 14  1  0
 12 15  1  0
 11 16  1  0
 16 17  1  0
 17 18  1  0
 18 19  1  0
 19 20  2  0
 19 21  1  0
 21 22  1  0
 22 23  2  0
 23 24  1  0
 24 25  2  0
 25 26  1  0
 26 27  2  0
 27 28  1  0
 28 29  2  0
 29 30  1  0
 30 31  2  0
 30 32  1  0
 29 33  1  0
 28 34  1  0
 27 35  1  0
 25 36  1  0
 23 37  1  0
 21 38  1  0
 21 39  1  0
 17 40  1  0
 17 41  1  0
 16 42  1  0
 16 43  1  0
 11 44  1  6
 10 45  1  0
 10 46  1  0
  9 47  1  1
  7 48  1  0
  6 49  1  0
  5 50  1  0
  4 51  1  0
  1 52  1  0
  1 53  1  0
  1 54  1  0
  8  3  1  0
 18  9  1  0
 31 22  1  0
 31 26  1  0
M  END
>  <cnnaffinities>  (80) 
[5.89505, 6.05248, 6.08808]

>  <score>  (80) 
5.89505

>  <index>  (80) 
82

>  <Smiles>  (80) 
C(Oc1c(c(c(c(c1[C@]1(C([C@@](C([H])([H])[H])(C(C(N1C(=O)C(c1c(nc(c2c(c(c(c(c12)[H])[H])[H])[H])[H])[H])([H])[H])([H])[H])([H])[H])[H])([H])[H])[H])[H])[H])[H])[H])([H])([H])[H]

>  <h>  (80) 
<NA>

>  <Training>  (80) 
True

>  <Success>  (80) 
True

>  <enamine_searched>  (80) 
False

>  <enamine_id>  (80) 
nan

$$$$

     RDKit          3D

 46 50  0  0  0  0  0  0  0  0999 V2000
   -9.8717    0.2531  -27.9903 N   0  0  0  0  0  0  0  0  0  0  0  0
   -9.0401    0.5486  -26.5720 S   0  0  0  0  0  0  0  0  0  0  0  0
   -9.1678    1.9662  -26.2891 O   0  0  0  0  0  0  0  0  0  0  0  0
   -7.7204   -0.0685  -26.6186 O   0  0  0  0  0  0  0  0  0  0  0  0
  -10.0152   -0.4090  -25.4602 C   0  0  0  0  0  0  0  0  0  0  0  0
  -11.4016   -0.5006  -25.5568 C   0  0  0  0  0  0  0  0  0  0  0  0
  -12.0790   -1.3061  -24.6564 C   0  0  0  0  0  0  0  0  0  0  0  0
  -11.3656   -2.0326  -23.6992 C   0  0  0  0  0  0  0  0  0  0  0  0
   -9.9809   -1.8694  -23.5630 C   0  0  0  0  0  0  0  0  0  0  0  0
   -9.3154   -1.0615  -24.4663 C   0  0  0  0  0  0  0  0  0  0  0  0
   -8.2392   -0.9603  -24.4262 H   0  0  0  0  0  0  0  0  0  0  0  0
   -9.1804   -2.4698  -22.4359 C   0  0  1  0  0  0  0  0  0  0  0  0
  -10.0408   -3.5318  -21.7363 C   0  0  0  0  0  0  0  0  0  0  0  0
  -11.4831   -3.0615  -21.6335 C   0  0  0  0  0  0  0  0  0  0  0  0
  -12.0649   -2.8979  -22.9176 O   0  0  0  0  0  0  0  0  0  0  0  0
  -11.5226   -2.0945  -21.1254 H   0  0  0  0  0  0  0  0  0  0  0  0
  -12.1068   -3.7833  -21.1049 H   0  0  0  0  0  0  0  0  0  0  0  0
   -9.6199   -3.7573  -20.7571 H   0  0  0  0  0  0  0  0  0  0  0  0
   -9.9959   -4.4400  -22.3466 H   0  0  0  0  0  0  0  0  0  0  0  0
   -7.9003   -3.0059  -22.8796 N   0  0  0  0  0  0  0  0  0  0  0  0
   -6.8405   -2.6132  -22.1065 C   0  0  0  0  0  0  0  0  0  0  0  0
   -5.7011   -3.0250  -22.1129 O   0  0  0  0  0  0  0  0  0  0  0  0
   -7.3222   -1.5942  -21.2671 N   0  0  0  0  0  0  0  0  0  0  0  0
   -6.5134   -1.0388  -20.2373 C   0  0  0  0  0  0  0  0  0  0  0  0
   -6.7809   -1.2993  -18.9161 C   0  0  0  0  0  0  0  0  0  0  0  0
   -5.9214   -1.0327  -17.9055 N   0  0  0  0  0  0  0  0  0  0  0  0
   -4.7969   -0.4357  -18.2103 C   0  0  0  0  0  0  0  0  0  0  0  0
   -4.4485   -0.0170  -19.5189 C   0  0  0  0  0  0  0  0  0  0  0  0
   -3.2639    0.7255  -19.7547 C   0  0  0  0  0  0  0  0  0  0  0  0
   -3.0395    1.2762  -20.9854 C   0  0  0  0  0  0  0  0  0  0  0  0
   -3.9412    1.0338  -22.0472 C   0  0  0  0  0  0  0  0  0  0  0  0
   -5.0477    0.2428  -21.8570 C   0  0  0  0  0  0  0  0  0  0  0  0
   -5.3479   -0.2817  -20.5694 C   0  0  0  0  0  0  0  0  0  0  0  0
   -5.7053    0.0180  -22.6893 H   0  0  0  0  0  0  0  0  0  0  0  0
   -3.7568    1.4786  -23.0205 H   0  0  0  0  0  0  0  0  0  0  0  0
   -2.1813    1.9203  -21.1442 H   0  0  0  0  0  0  0  0  0  0  0  0
   -2.6312    0.9394  -18.8959 H   0  0  0  0  0  0  0  0  0  0  0  0
   -4.0988   -0.2381  -17.3990 H   0  0  0  0  0  0  0  0  0  0  0  0
   -7.7015   -1.8074  -18.6452 H   0  0  0  0  0  0  0  0  0  0  0  0
   -8.6862   -1.3846  -21.4585 C   0  0  0  0  0  0  0  0  0  0  0  0
   -9.3313   -0.4849  -20.9831 O   0  0  0  0  0  0  0  0  0  0  0  0
   -7.8429   -3.8750  -23.3869 H   0  0  0  0  0  0  0  0  0  0  0  0
  -13.1606   -1.3676  -24.6667 H   0  0  0  0  0  0  0  0  0  0  0  0
  -11.9237    0.0288  -26.3496 H   0  0  0  0  0  0  0  0  0  0  0  0
   -9.8499    1.0675  -28.6021 H   0  0  0  0  0  0  0  0  0  0  0  0
   -9.5380   -0.5979  -28.4326 H   0  0  0  0  0  0  0  0  0  0  0  0
  1  2  1  0
  2  3  2  0
  2  4  2  0
  2  5  1  0
  5  6  2  0
  6  7  1  0
  7  8  2  0
  8  9  1  0
  9 10  2  0
 10 11  1  0
  9 12  1  0
 12 13  1  0
 13 14  1  0
 14 15  1  0
 14 16  1  0
 14 17  1  0
 13 18  1  0
 13 19  1  0
 12 20  1  6
 20 21  1  0
 21 22  2  0
 21 23  1  0
 23 24  1  0
 24 25  2  0
 25 26  1  0
 26 27  2  0
 27 28  1  0
 28 29  2  0
 29 30  1  0
 30 31  2  0
 31 32  1  0
 32 33  2  0
 32 34  1  0
 31 35  1  0
 30 36  1  0
 29 37  1  0
 27 38  1  0
 25 39  1  0
 23 40  1  0
 40 41  2  0
 20 42  1  0
  7 43  1  0
  6 44  1  0
  1 45  1  0
  1 46  1  0
 10  5  1  0
 40 12  1  0
 15  8  1  0
 33 24  1  0
 33 28  1  0
M  END
>  <cnnaffinities>  (81) 
[5.68178, 5.68178, 5.70593]

>  <score>  (81) 
5.68178

>  <index>  (81) 
83

>  <Smiles>  (81) 
N(S(=O)(=O)c1c(c(c2c(c1[H])[C@@]1(C(C(O2)([H])[H])([H])[H])N(C(=O)N(c2c(nc(c3c(c(c(c(c23)[H])[H])[H])[H])[H])[H])C1=O)[H])[H])[H])([H])[H]

>  <h>  (81) 
<NA>

>  <Training>  (81) 
True

>  <Success>  (81) 
True

>  <enamine_searched>  (81) 
False

>  <enamine_id>  (81) 
nan

$$$$

     RDKit          3D

 63 68  0  0  0  0  0  0  0  0999 V2000
   -8.4295   -4.1355  -23.4833 C   0  0  0  0  0  0  0  0  0  0  0  0
   -8.6058   -2.9567  -22.5389 C   0  0  1  0  0  0  0  0  0  0  0  0
   -7.4165   -2.7905  -21.5945 C   0  0  0  0  0  0  0  0  0  0  0  0
   -7.4318   -1.3836  -21.2616 N   0  0  0  0  0  0  0  0  0  0  0  0
   -6.5418   -0.9189  -20.2566 C   0  0  0  0  0  0  0  0  0  0  0  0
   -6.7494   -1.2993  -18.9520 C   0  0  0  0  0  0  0  0  0  0  0  0
   -5.8741   -1.0923  -17.9414 N   0  0  0  0  0  0  0  0  0  0  0  0
   -4.7515   -0.4765  -18.2184 C   0  0  0  0  0  0  0  0  0  0  0  0
   -4.4138   -0.0069  -19.5158 C   0  0  0  0  0  0  0  0  0  0  0  0
   -3.2118    0.7124  -19.7470 C   0  0  0  0  0  0  0  0  0  0  0  0
   -2.9488    1.2281  -20.9853 C   0  0  0  0  0  0  0  0  0  0  0  0
   -3.8280    0.9759  -22.0617 C   0  0  0  0  0  0  0  0  0  0  0  0
   -4.9603    0.2235  -21.8738 C   0  0  0  0  0  0  0  0  0  0  0  0
   -5.3241   -0.2279  -20.5741 C   0  0  0  0  0  0  0  0  0  0  0  0
   -5.5981   -0.0256  -22.7163 H   0  0  0  0  0  0  0  0  0  0  0  0
   -3.5997    1.3738  -23.0473 H   0  0  0  0  0  0  0  0  0  0  0  0
   -2.0703    1.8444  -21.1405 H   0  0  0  0  0  0  0  0  0  0  0  0
   -2.5751    0.9171  -18.8910 H   0  0  0  0  0  0  0  0  0  0  0  0
   -4.0456   -0.3242  -17.4007 H   0  0  0  0  0  0  0  0  0  0  0  0
   -7.6650   -1.8301  -18.6852 H   0  0  0  0  0  0  0  0  0  0  0  0
   -8.1925   -0.6172  -22.1252 C   0  0  0  0  0  0  0  0  0  0  0  0
   -8.2974    0.5901  -22.0734 O   0  0  0  0  0  0  0  0  0  0  0  0
   -8.8218   -1.5472  -23.1914 C   0  0  1  0  0  0  0  0  0  0  0  0
   -8.0329   -1.2984  -24.5057 C   0  0  0  0  0  0  0  0  0  0  0  0
   -8.6913   -1.8486  -25.6908 N   0  0  0  0  0  0  0  0  0  0  0  0
   -7.8971   -2.2303  -26.8521 C   0  0  0  0  0  0  0  0  0  0  0  0
   -7.9483   -3.7434  -27.0577 C   0  0  0  0  0  0  0  0  0  0  0  0
   -7.1720   -4.4959  -26.4940 O   0  0  0  0  0  0  0  0  0  0  0  0
   -8.9159   -4.1693  -27.9247 N   0  0  0  0  0  0  0  0  0  0  0  0
   -9.1288   -5.5927  -28.0622 C   0  0  0  0  0  0  0  0  0  0  0  0
   -9.7330   -6.1935  -26.8152 C   0  0  0  0  0  0  0  0  0  0  0  0
  -10.7766   -5.4208  -26.3414 F   0  0  0  0  0  0  0  0  0  0  0  0
   -8.9385   -6.8821  -25.7628 C   0  0  0  0  0  0  0  0  0  0  0  0
   -9.8681   -7.6648  -26.6595 C   0  0  0  0  0  0  0  0  0  0  0  0
  -10.7903   -8.0368  -26.2330 H   0  0  0  0  0  0  0  0  0  0  0  0
   -9.4311   -8.3028  -27.4217 H   0  0  0  0  0  0  0  0  0  0  0  0
   -7.8715   -6.9726  -25.9357 H   0  0  0  0  0  0  0  0  0  0  0  0
   -9.2470   -6.7204  -24.7347 H   0  0  0  0  0  0  0  0  0  0  0  0
   -9.7881   -5.7522  -28.9228 H   0  0  0  0  0  0  0  0  0  0  0  0
   -8.1693   -6.0796  -28.2687 H   0  0  0  0  0  0  0  0  0  0  0  0
   -9.7385   -3.5758  -27.9606 H   0  0  0  0  0  0  0  0  0  0  0  0
   -8.2959   -1.7309  -27.7398 H   0  0  0  0  0  0  0  0  0  0  0  0
   -6.8636   -1.9095  -26.6993 H   0  0  0  0  0  0  0  0  0  0  0  0
  -10.0330   -1.7300  -25.8991 C   0  0  0  0  0  0  0  0  0  0  0  0
  -10.5493   -1.9595  -26.9940 O   0  0  0  0  0  0  0  0  0  0  0  0
  -10.8532   -1.3373  -24.7255 C   0  0  0  0  0  0  0  0  0  0  0  0
  -12.2129   -1.1103  -24.9399 C   0  0  0  0  0  0  0  0  0  0  0  0
  -13.0474   -0.8393  -23.8749 C   0  0  0  0  0  0  0  0  0  0  0  0
  -12.5078   -0.8055  -22.5966 C   0  0  0  0  0  0  0  0  0  0  0  0
  -13.3535   -0.5781  -21.5783 F   0  0  0  0  0  0  0  0  0  0  0  0
  -11.1563   -1.0099  -22.3649 C   0  0  0  0  0  0  0  0  0  0  0  0
  -10.2964   -1.2593  -23.4443 C   0  0  0  0  0  0  0  0  0  0  0  0
  -10.7648   -0.9830  -21.3566 H   0  0  0  0  0  0  0  0  0  0  0  0
  -14.1089   -0.6725  -24.0076 H   0  0  0  0  0  0  0  0  0  0  0  0
  -12.5955   -1.1694  -25.9543 H   0  0  0  0  0  0  0  0  0  0  0  0
   -7.9242   -0.2099  -24.6184 H   0  0  0  0  0  0  0  0  0  0  0  0
   -7.0279   -1.7404  -24.4299 H   0  0  0  0  0  0  0  0  0  0  0  0
   -6.4666   -3.0913  -22.0659 H   0  0  0  0  0  0  0  0  0  0  0  0
   -7.5072   -3.3719  -20.6803 H   0  0  0  0  0  0  0  0  0  0  0  0
   -9.4927   -3.1337  -21.9140 H   0  0  0  0  0  0  0  0  0  0  0  0
   -8.3570   -5.0714  -22.9138 H   0  0  0  0  0  0  0  0  0  0  0  0
   -7.5145   -4.0257  -24.0748 H   0  0  0  0  0  0  0  0  0  0  0  0
   -9.2742   -4.2206  -24.1750 H   0  0  0  0  0  0  0  0  0  0  0  0
  1  2  1  0
  2  3  1  0
  3  4  1  0
  4  5  1  0
  5  6  2  0
  6  7  1  0
  7  8  2  0
  8  9  1  0
  9 10  2  0
 10 11  1  0
 11 12  2  0
 12 13  1  0
 13 14  2  0
 13 15  1  0
 12 16  1  0
 11 17  1  0
 10 18  1  0
  8 19  1  0
  6 20  1  0
  4 21  1  0
 21 22  2  0
 21 23  1  0
 23 24  1  6
 24 25  1  0
 25 26  1  0
 26 27  1  0
 27 28  2  0
 27 29  1  0
 29 30  1  0
 30 31  1  0
 31 32  1  0
 31 33  1  0
 33 34  1  0
 34 35  1  0
 34 36  1  0
 33 37  1  0
 33 38  1  0
 30 39  1  0
 30 40  1  0
 29 41  1  0
 26 42  1  0
 26 43  1  0
 25 44  1  0
 44 45  2  0
 44 46  1  0
 46 47  2  0
 47 48  1  0
 48 49  2  0
 49 50  1  0
 49 51  1  0
 51 52  2  0
 51 53  1  0
 48 54  1  0
 47 55  1  0
 24 56  1  0
 24 57  1  0
  3 58  1  0
  3 59  1  0
  2 60  1  1
  1 61  1  0
  1 62  1  0
  1 63  1  0
 23  2  1  0
 34 31  1  0
 52 46  1  0
 14  5  1  0
 52 23  1  0
 14  9  1  0
M  END
>  <cnnaffinities>  (82) 
[6.40469, 6.44396]

>  <score>  (82) 
6.40469

>  <index>  (82) 
84

>  <Smiles>  (82) 
C([C@]1(C(N(c2c(nc(c3c(c(c(c(c23)[H])[H])[H])[H])[H])[H])C(=O)[C@]21C(N(C(C(=O)N(C(C1(F)C(C1([H])[H])([H])[H])([H])[H])[H])([H])[H])C(=O)c1c(c(c(F)c(c21)[H])[H])[H])([H])[H])([H])[H])[H])([H])([H])[H]

>  <h>  (82) 
<NA>

>  <Training>  (82) 
True

>  <Success>  (82) 
True

>  <enamine_searched>  (82) 
False

>  <enamine_id>  (82) 
nan

$$$$

     RDKit          3D

 57 62  0  0  0  0  0  0  0  0999 V2000
   -6.5908    3.4507  -23.0950 C   0  0  0  0  0  0  0  0  0  0  0  0
   -6.9801    2.4601  -24.0870 N   0  0  0  0  0  0  0  0  0  0  0  0
   -8.2461    2.5290  -24.5932 C   0  0  0  0  0  0  0  0  0  0  0  0
   -8.9693    3.4834  -24.3892 O   0  0  0  0  0  0  0  0  0  0  0  0
   -8.6842    1.3427  -25.4640 C   0  0  0  0  0  0  0  0  0  0  0  0
   -9.3719    0.3161  -24.6964 N   0  0  0  0  0  0  0  0  0  0  0  0
   -8.7706   -0.9909  -24.4610 C   0  0  0  0  0  0  0  0  0  0  0  0
   -9.0069   -1.4855  -23.0066 C   0  0  2  0  0  0  0  0  0  0  0  0
   -8.2294   -0.5796  -22.0081 C   0  0  0  0  0  0  0  0  0  0  0  0
   -8.3197    0.6252  -21.8939 O   0  0  0  0  0  0  0  0  0  0  0  0
   -7.3794   -1.3745  -21.2674 N   0  0  0  0  0  0  0  0  0  0  0  0
   -6.5100   -0.9279  -20.2435 C   0  0  0  0  0  0  0  0  0  0  0  0
   -6.7389   -1.2888  -18.9413 C   0  0  0  0  0  0  0  0  0  0  0  0
   -5.8800   -1.0522  -17.9224 N   0  0  0  0  0  0  0  0  0  0  0  0
   -4.7588   -0.4322  -18.1992 C   0  0  0  0  0  0  0  0  0  0  0  0
   -4.4051    0.0118  -19.5036 C   0  0  0  0  0  0  0  0  0  0  0  0
   -3.2224    0.7588  -19.7443 C   0  0  0  0  0  0  0  0  0  0  0  0
   -2.9708    1.2639  -20.9901 C   0  0  0  0  0  0  0  0  0  0  0  0
   -3.8385    0.9806  -22.0692 C   0  0  0  0  0  0  0  0  0  0  0  0
   -4.9573    0.2085  -21.8715 C   0  0  0  0  0  0  0  0  0  0  0  0
   -5.3029   -0.2345  -20.5658 C   0  0  0  0  0  0  0  0  0  0  0  0
   -5.5702   -0.0955  -22.7129 H   0  0  0  0  0  0  0  0  0  0  0  0
   -3.6167    1.3777  -23.0565 H   0  0  0  0  0  0  0  0  0  0  0  0
   -2.1225    1.9199  -21.1521 H   0  0  0  0  0  0  0  0  0  0  0  0
   -2.5936    0.9893  -18.8891 H   0  0  0  0  0  0  0  0  0  0  0  0
   -4.0754   -0.2389  -17.3718 H   0  0  0  0  0  0  0  0  0  0  0  0
   -7.6632   -1.8076  -18.6800 H   0  0  0  0  0  0  0  0  0  0  0  0
   -7.5270   -2.7887  -21.4947 C   0  0  0  0  0  0  0  0  0  0  0  0
   -8.3872   -2.8740  -22.7410 C   0  0  0  0  0  0  0  0  0  0  0  0
   -7.9257   -3.8055  -23.8314 C   0  0  0  0  0  0  0  0  0  0  0  0
   -9.1267   -4.1528  -23.0053 C   0  0  0  0  0  0  0  0  0  0  0  0
  -10.1015   -4.0622  -23.4744 H   0  0  0  0  0  0  0  0  0  0  0  0
   -9.0519   -4.9467  -22.2604 H   0  0  0  0  0  0  0  0  0  0  0  0
   -8.0752   -3.5186  -24.8676 H   0  0  0  0  0  0  0  0  0  0  0  0
   -7.0107   -4.3653  -23.6541 H   0  0  0  0  0  0  0  0  0  0  0  0
   -6.5492   -3.2756  -21.6150 H   0  0  0  0  0  0  0  0  0  0  0  0
   -8.0385   -3.2510  -20.6486 H   0  0  0  0  0  0  0  0  0  0  0  0
  -10.5125   -1.3883  -22.7606 C   0  0  0  0  0  0  0  0  0  0  0  0
  -11.1753   -2.2690  -21.9036 C   0  0  0  0  0  0  0  0  0  0  0  0
  -12.5454   -2.2026  -21.7374 C   0  0  0  0  0  0  0  0  0  0  0  0
  -13.3091   -3.4493  -20.7907 Cl  0  0  0  0  0  0  0  0  0  0  0  0
  -13.3009   -1.1739  -22.2957 C   0  0  0  0  0  0  0  0  0  0  0  0
  -12.6463   -0.2683  -23.1085 C   0  0  0  0  0  0  0  0  0  0  0  0
  -11.2857   -0.4000  -23.3820 C   0  0  0  0  0  0  0  0  0  0  0  0
  -10.6974    0.5236  -24.4078 C   0  0  0  0  0  0  0  0  0  0  0  0
  -11.3751    1.3787  -24.9597 O   0  0  0  0  0  0  0  0  0  0  0  0
  -13.1693    0.5550  -23.5807 H   0  0  0  0  0  0  0  0  0  0  0  0
  -14.3634   -1.0827  -22.0990 H   0  0  0  0  0  0  0  0  0  0  0  0
  -10.6445   -3.0420  -21.3670 H   0  0  0  0  0  0  0  0  0  0  0  0
   -7.6950   -0.9348  -24.6435 H   0  0  0  0  0  0  0  0  0  0  0  0
   -9.2041   -1.7275  -25.1576 H   0  0  0  0  0  0  0  0  0  0  0  0
   -7.8248    0.9020  -25.9793 H   0  0  0  0  0  0  0  0  0  0  0  0
   -9.3905    1.7153  -26.2093 H   0  0  0  0  0  0  0  0  0  0  0  0
   -6.5312    1.5577  -24.0350 H   0  0  0  0  0  0  0  0  0  0  0  0
   -5.5792    3.2277  -22.7482 H   0  0  0  0  0  0  0  0  0  0  0  0
   -7.2762    3.4369  -22.2403 H   0  0  0  0  0  0  0  0  0  0  0  0
   -6.6098    4.4503  -23.5407 H   0  0  0  0  0  0  0  0  0  0  0  0
  1  2  1  0
  2  3  1  0
  3  4  2  0
  3  5  1  0
  5  6  1  0
  6  7  1  0
  8  7  1  6
  8  9  1  0
  9 10  2  0
  9 11  1  0
 11 12  1  0
 12 13  2  0
 13 14  1  0
 14 15  2  0
 15 16  1  0
 16 17  2  0
 17 18  1  0
 18 19  2  0
 19 20  1  0
 20 21  2  0
 20 22  1  0
 19 23  1  0
 18 24  1  0
 17 25  1  0
 15 26  1  0
 13 27  1  0
 11 28  1  0
 28 29  1  0
 29 30  1  0
 30 31  1  0
 31 32  1  0
 31 33  1  0
 30 34  1  0
 30 35  1  0
 28 36  1  0
 28 37  1  0
  8 38  1  0
 38 39  2  0
 39 40  1  0
 40 41  1  0
 40 42  2  0
 42 43  1  0
 43 44  2  0
 44 45  1  0
 45 46  2  0
 43 47  1  0
 42 48  1  0
 39 49  1  0
  7 50  1  0
  7 51  1  0
  5 52  1  0
  5 53  1  0
  2 54  1  0
  1 55  1  0
  1 56  1  0
  1 57  1  0
 45  6  1  0
 29  8  1  0
 44 38  1  0
 21 12  1  0
 31 29  1  0
 21 16  1  0
M  END
>  <cnnaffinities>  (83) 
[6.46185]

>  <score>  (83) 
6.46185

>  <index>  (83) 
85

>  <Smiles>  (83) 
C(N(C(=O)C(N1C([C@@]2(C(=O)N(c3c(nc(c4c(c(c(c(c34)[H])[H])[H])[H])[H])[H])C(C32C(C3([H])[H])([H])[H])([H])[H])c2c(c(Cl)c(c(c2C1=O)[H])[H])[H])([H])[H])([H])[H])[H])([H])([H])[H]

>  <h>  (83) 
<NA>

>  <Training>  (83) 
True

>  <Success>  (83) 
True

>  <enamine_searched>  (83) 
False

>  <enamine_id>  (83) 
nan

$$$$

     RDKit          3D

 43 45  0  0  0  0  0  0  0  0999 V2000
   -8.5375   -5.5418  -25.7748 C   0  0  0  0  0  0  0  0  0  0  0  0
   -9.0540   -5.4325  -24.3373 C   0  0  1  0  0  0  0  0  0  0  0  0
   -8.0169   -5.8753  -23.2980 C   0  0  0  0  0  0  0  0  0  0  0  0
   -6.9386   -4.8246  -23.0851 C   0  0  0  0  0  0  0  0  0  0  0  0
   -7.5357   -3.5514  -22.7016 N   0  0  0  0  0  0  0  0  0  0  0  0
   -6.7692   -2.7812  -21.8655 C   0  0  0  0  0  0  0  0  0  0  0  0
   -5.6470   -3.1161  -21.5292 O   0  0  0  0  0  0  0  0  0  0  0  0
   -7.4020   -1.5078  -21.2957 C   0  0  0  0  0  0  0  0  0  0  0  0
   -6.5003   -0.9870  -20.2211 C   0  0  0  0  0  0  0  0  0  0  0  0
   -6.7530   -1.2699  -18.9075 C   0  0  0  0  0  0  0  0  0  0  0  0
   -5.9346   -0.9834  -17.8653 N   0  0  0  0  0  0  0  0  0  0  0  0
   -4.8232   -0.3476  -18.1463 C   0  0  0  0  0  0  0  0  0  0  0  0
   -4.4451    0.0449  -19.4591 C   0  0  0  0  0  0  0  0  0  0  0  0
   -3.2932    0.8383  -19.7050 C   0  0  0  0  0  0  0  0  0  0  0  0
   -3.0471    1.3405  -20.9565 C   0  0  0  0  0  0  0  0  0  0  0  0
   -3.8851    0.9799  -22.0340 C   0  0  0  0  0  0  0  0  0  0  0  0
   -4.9634    0.1564  -21.8405 C   0  0  0  0  0  0  0  0  0  0  0  0
   -5.3045   -0.2867  -20.5325 C   0  0  0  0  0  0  0  0  0  0  0  0
   -5.6289   -0.0741  -22.6659 H   0  0  0  0  0  0  0  0  0  0  0  0
   -3.6937    1.3859  -23.0246 H   0  0  0  0  0  0  0  0  0  0  0  0
   -2.2562    2.0662  -21.1143 H   0  0  0  0  0  0  0  0  0  0  0  0
   -2.6500    1.0946  -18.8666 H   0  0  0  0  0  0  0  0  0  0  0  0
   -4.1822   -0.0886  -17.3034 H   0  0  0  0  0  0  0  0  0  0  0  0
   -7.7030   -1.7258  -18.6392 H   0  0  0  0  0  0  0  0  0  0  0  0
   -7.5862   -0.7837  -22.1005 H   0  0  0  0  0  0  0  0  0  0  0  0
   -8.3856   -1.7558  -20.8794 H   0  0  0  0  0  0  0  0  0  0  0  0
   -8.5461   -2.9820  -23.6015 C   0  0  1  0  0  0  0  0  0  0  0  0
   -7.9415   -2.2985  -24.8353 C   0  0  0  0  0  0  0  0  0  0  0  0
   -8.7459   -1.9990  -25.5151 H   0  0  0  0  0  0  0  0  0  0  0  0
   -7.2653   -2.9610  -25.3834 H   0  0  0  0  0  0  0  0  0  0  0  0
   -7.3694   -1.4011  -24.5744 H   0  0  0  0  0  0  0  0  0  0  0  0
   -9.5951   -4.0463  -23.9546 C   0  0  0  0  0  0  0  0  0  0  0  0
  -10.2254   -3.6506  -24.7636 H   0  0  0  0  0  0  0  0  0  0  0  0
  -10.2381   -4.1707  -23.0762 H   0  0  0  0  0  0  0  0  0  0  0  0
   -9.0771   -2.2121  -23.0272 H   0  0  0  0  0  0  0  0  0  0  0  0
   -6.3206   -4.6934  -23.9855 H   0  0  0  0  0  0  0  0  0  0  0  0
   -6.2659   -5.1098  -22.2739 H   0  0  0  0  0  0  0  0  0  0  0  0
   -7.5483   -6.8239  -23.5940 H   0  0  0  0  0  0  0  0  0  0  0  0
   -8.5211   -6.0449  -22.3386 H   0  0  0  0  0  0  0  0  0  0  0  0
   -9.9075   -6.1197  -24.2668 H   0  0  0  0  0  0  0  0  0  0  0  0
   -7.5947   -5.0109  -25.9344 H   0  0  0  0  0  0  0  0  0  0  0  0
   -8.3608   -6.5903  -26.0407 H   0  0  0  0  0  0  0  0  0  0  0  0
   -9.2674   -5.1425  -26.4874 H   0  0  0  0  0  0  0  0  0  0  0  0
  1  2  1  0
  2  3  1  0
  3  4  1  0
  4  5  1  0
  5  6  1  0
  6  7  2  0
  6  8  1  0
  8  9  1  0
  9 10  2  0
 10 11  1  0
 11 12  2  0
 12 13  1  0
 13 14  2  0
 14 15  1  0
 15 16  2  0
 16 17  1  0
 17 18  2  0
 17 19  1  0
 16 20  1  0
 15 21  1  0
 14 22  1  0
 12 23  1  0
 10 24  1  0
  8 25  1  0
  8 26  1  0
  5 27  1  0
 27 28  1  0
 28 29  1  0
 28 30  1  0
 28 31  1  0
 27 32  1  0
 32 33  1  0
 32 34  1  0
 27 35  1  1
  4 36  1  0
  4 37  1  0
  3 38  1  0
  3 39  1  0
  2 40  1  6
  1 41  1  0
  1 42  1  0
  1 43  1  0
 32  2  1  0
 18  9  1  0
 18 13  1  0
M  END
>  <cnnaffinities>  (84) 
[5.38411, 5.3585]

>  <score>  (84) 
5.38411

>  <index>  (84) 
86

>  <Smiles>  (84) 
C([C@]1(C(C(N(C(=O)C(c2c(nc(c3c(c(c(c(c23)[H])[H])[H])[H])[H])[H])([H])[H])[C@@](C([H])([H])[H])(C1([H])[H])[H])([H])[H])([H])[H])[H])([H])([H])[H]

>  <h>  (84) 
<NA>

>  <Training>  (84) 
True

>  <Success>  (84) 
True

>  <enamine_searched>  (84) 
False

>  <enamine_id>  (84) 
nan

$$$$

     RDKit          3D

 59 64  0  0  0  0  0  0  0  0999 V2000
   -7.9043   -3.6707  -24.0484 C   0  0  0  0  0  0  0  0  0  0  0  0
   -8.2848   -2.8786  -22.8035 C   0  0  1  0  0  0  0  0  0  0  0  0
   -7.0612   -2.6431  -21.9073 C   0  0  0  0  0  0  0  0  0  0  0  0
   -7.3915   -1.4337  -21.2008 N   0  0  0  0  0  0  0  0  0  0  0  0
   -6.5198   -0.9537  -20.1968 C   0  0  0  0  0  0  0  0  0  0  0  0
   -6.7665   -1.2544  -18.8870 C   0  0  0  0  0  0  0  0  0  0  0  0
   -5.9102   -0.9920  -17.8689 N   0  0  0  0  0  0  0  0  0  0  0  0
   -4.7845   -0.3908  -18.1643 C   0  0  0  0  0  0  0  0  0  0  0  0
   -4.4367    0.0327  -19.4784 C   0  0  0  0  0  0  0  0  0  0  0  0
   -3.2711    0.7940  -19.7344 C   0  0  0  0  0  0  0  0  0  0  0  0
   -3.0474    1.3131  -20.9788 C   0  0  0  0  0  0  0  0  0  0  0  0
   -3.9132    0.9997  -22.0522 C   0  0  0  0  0  0  0  0  0  0  0  0
   -5.0192    0.2138  -21.8406 C   0  0  0  0  0  0  0  0  0  0  0  0
   -5.3190   -0.2641  -20.5371 C   0  0  0  0  0  0  0  0  0  0  0  0
   -5.6623   -0.0506  -22.6760 H   0  0  0  0  0  0  0  0  0  0  0  0
   -3.7208    1.4195  -23.0330 H   0  0  0  0  0  0  0  0  0  0  0  0
   -2.2009    1.9699  -21.1497 H   0  0  0  0  0  0  0  0  0  0  0  0
   -2.6279    1.0175  -18.8891 H   0  0  0  0  0  0  0  0  0  0  0  0
   -4.0792   -0.1866  -17.3571 H   0  0  0  0  0  0  0  0  0  0  0  0
   -7.6972   -1.7609  -18.6382 H   0  0  0  0  0  0  0  0  0  0  0  0
   -8.4432   -0.7230  -21.7293 C   0  0  0  0  0  0  0  0  0  0  0  0
   -8.8968    0.2925  -21.2450 O   0  0  0  0  0  0  0  0  0  0  0  0
   -8.9303   -1.4679  -23.0034 C   0  0  1  0  0  0  0  0  0  0  0  0
   -8.3981   -0.8192  -24.3074 C   0  0  0  0  0  0  0  0  0  0  0  0
   -9.0428    0.4389  -24.6218 N   0  0  0  0  0  0  0  0  0  0  0  0
   -8.2906    1.5160  -25.2474 C   0  0  0  0  0  0  0  0  0  0  0  0
   -8.1541    2.7008  -24.3368 C   0  0  0  0  0  0  0  0  0  0  0  0
   -7.5730    2.8167  -23.0870 C   0  0  0  0  0  0  0  0  0  0  0  0
   -7.7747    4.1613  -22.7258 C   0  0  0  0  0  0  0  0  0  0  0  0
   -8.4142    4.8288  -23.6788 N   0  0  0  0  0  0  0  0  0  0  0  0
   -8.6402    3.9301  -24.6462 N   0  0  0  0  0  0  0  0  0  0  0  0
   -9.3152    4.3607  -25.8606 C   0  0  0  0  0  0  0  0  0  0  0  0
  -10.2148    3.7653  -26.0440 H   0  0  0  0  0  0  0  0  0  0  0  0
   -8.6409    4.2960  -26.7224 H   0  0  0  0  0  0  0  0  0  0  0  0
   -9.5835    5.4063  -25.7051 H   0  0  0  0  0  0  0  0  0  0  0  0
   -7.4748    4.6826  -21.8241 H   0  0  0  0  0  0  0  0  0  0  0  0
   -7.0725    2.0497  -22.5071 H   0  0  0  0  0  0  0  0  0  0  0  0
   -8.7763    1.7954  -26.1890 H   0  0  0  0  0  0  0  0  0  0  0  0
   -7.3000    1.1305  -25.5068 H   0  0  0  0  0  0  0  0  0  0  0  0
  -10.4025    0.5654  -24.5845 C   0  0  0  0  0  0  0  0  0  0  0  0
  -10.9882    1.4913  -25.1344 O   0  0  0  0  0  0  0  0  0  0  0  0
  -11.1370   -0.4836  -23.8058 C   0  0  0  0  0  0  0  0  0  0  0  0
  -12.5325   -0.4457  -23.8061 C   0  0  0  0  0  0  0  0  0  0  0  0
  -13.2660   -1.3085  -23.0179 C   0  0  0  0  0  0  0  0  0  0  0  0
  -12.5599   -2.1935  -22.2118 C   0  0  0  0  0  0  0  0  0  0  0  0
  -13.2506   -3.0127  -21.4053 F   0  0  0  0  0  0  0  0  0  0  0  0
  -11.1829   -2.2622  -22.1975 C   0  0  0  0  0  0  0  0  0  0  0  0
  -10.4433   -1.4322  -23.0428 C   0  0  0  0  0  0  0  0  0  0  0  0
  -10.7018   -2.9510  -21.5128 H   0  0  0  0  0  0  0  0  0  0  0  0
  -14.3511   -1.2926  -22.9896 H   0  0  0  0  0  0  0  0  0  0  0  0
  -13.0233    0.2945  -24.4240 H   0  0  0  0  0  0  0  0  0  0  0  0
   -8.5590   -1.5318  -25.1279 H   0  0  0  0  0  0  0  0  0  0  0  0
   -7.3190   -0.6521  -24.2238 H   0  0  0  0  0  0  0  0  0  0  0  0
   -6.1289   -2.5458  -22.4927 H   0  0  0  0  0  0  0  0  0  0  0  0
   -6.9130   -3.4542  -21.1877 H   0  0  0  0  0  0  0  0  0  0  0  0
   -8.9937   -3.4825  -22.2303 H   0  0  0  0  0  0  0  0  0  0  0  0
   -8.7547   -3.8185  -24.7223 H   0  0  0  0  0  0  0  0  0  0  0  0
   -7.1046   -3.1623  -24.6014 H   0  0  0  0  0  0  0  0  0  0  0  0
   -7.5230   -4.6534  -23.7511 H   0  0  0  0  0  0  0  0  0  0  0  0
  1  2  1  0
  2  3  1  0
  3  4  1  0
  4  5  1  0
  5  6  2  0
  6  7  1  0
  7  8  2  0
  8  9  1  0
  9 10  2  0
 10 11  1  0
 11 12  2  0
 12 13  1  0
 13 14  2  0
 13 15  1  0
 12 16  1  0
 11 17  1  0
 10 18  1  0
  8 19  1  0
  6 20  1  0
  4 21  1  0
 21 22  2  0
 21 23  1  0
 23 24  1  6
 24 25  1  0
 25 26  1  0
 26 27  1  0
 27 28  2  0
 28 29  1  0
 29 30  2  0
 30 31  1  0
 31 32  1  0
 32 33  1  0
 32 34  1  0
 32 35  1  0
 29 36  1  0
 28 37  1  0
 26 38  1  0
 26 39  1  0
 25 40  1  0
 40 41  2  0
 40 42  1  0
 42 43  2  0
 43 44  1  0
 44 45  2  0
 45 46  1  0
 45 47  1  0
 47 48  2  0
 47 49  1  0
 44 50  1  0
 43 51  1  0
 24 52  1  0
 24 53  1  0
  3 54  1  0
  3 55  1  0
  2 56  1  1
  1 57  1  0
  1 58  1  0
  1 59  1  0
 23  2  1  0
 31 27  1  0
 48 42  1  0
 14  5  1  0
 48 23  1  0
 14  9  1  0
M  END
>  <cnnaffinities>  (85) 
[6.8144, 6.47707, 6.81629]

>  <score>  (85) 
6.8144

>  <index>  (85) 
87

>  <Smiles>  (85) 
C([C@]1(C(N(c2c(nc(c3c(c(c(c(c23)[H])[H])[H])[H])[H])[H])C(=O)[C@]21C(N(C(c1c(c(nn1C([H])([H])[H])[H])[H])([H])[H])C(=O)c1c(c(c(F)c(c21)[H])[H])[H])([H])[H])([H])[H])[H])([H])([H])[H]

>  <h>  (85) 
<NA>

>  <Training>  (85) 
True

>  <Success>  (85) 
True

>  <enamine_searched>  (85) 
False

>  <enamine_id>  (85) 
nan

$$$$

     RDKit          3D

 40 42  0  0  0  0  0  0  0  0999 V2000
   -8.8029   -3.2992  -21.4693 O   0  0  0  0  0  0  0  0  0  0  0  0
   -7.6648   -2.8642  -21.5769 C   0  0  0  0  0  0  0  0  0  0  0  0
   -7.4030   -1.3755  -21.3448 C   0  0  0  0  0  0  0  0  0  0  0  0
   -6.4284   -0.9887  -20.2561 C   0  0  0  0  0  0  0  0  0  0  0  0
   -6.6954   -1.2978  -18.9455 C   0  0  0  0  0  0  0  0  0  0  0  0
   -5.8678   -1.0237  -17.9099 N   0  0  0  0  0  0  0  0  0  0  0  0
   -4.7465   -0.3920  -18.1700 C   0  0  0  0  0  0  0  0  0  0  0  0
   -4.3712    0.0499  -19.4648 C   0  0  0  0  0  0  0  0  0  0  0  0
   -3.2028    0.8236  -19.6929 C   0  0  0  0  0  0  0  0  0  0  0  0
   -2.9476    1.3575  -20.9247 C   0  0  0  0  0  0  0  0  0  0  0  0
   -3.8159    1.0799  -22.0017 C   0  0  0  0  0  0  0  0  0  0  0  0
   -4.9113    0.2709  -21.8210 C   0  0  0  0  0  0  0  0  0  0  0  0
   -5.2475   -0.2373  -20.5416 C   0  0  0  0  0  0  0  0  0  0  0  0
   -5.4937   -0.0197  -22.6912 H   0  0  0  0  0  0  0  0  0  0  0  0
   -3.6152    1.4979  -22.9813 H   0  0  0  0  0  0  0  0  0  0  0  0
   -2.0912    2.0065  -21.0875 H   0  0  0  0  0  0  0  0  0  0  0  0
   -2.5593    1.0390  -18.8413 H   0  0  0  0  0  0  0  0  0  0  0  0
   -4.0695   -0.1818  -17.3375 H   0  0  0  0  0  0  0  0  0  0  0  0
   -7.6244   -1.8113  -18.6794 H   0  0  0  0  0  0  0  0  0  0  0  0
   -7.1281   -0.9458  -22.3100 H   0  0  0  0  0  0  0  0  0  0  0  0
   -8.3720   -0.9469  -21.0912 H   0  0  0  0  0  0  0  0  0  0  0  0
   -6.6293   -3.6754  -22.0039 N   0  0  0  0  0  0  0  0  0  0  0  0
   -7.0980   -4.8716  -22.7113 C   0  0  0  0  0  0  0  0  0  0  0  0
   -6.0423   -5.9482  -22.8389 C   0  0  0  0  0  0  0  0  0  0  0  0
   -4.7857   -5.3861  -23.4972 C   0  0  0  0  0  0  0  0  0  0  0  0
   -3.7195   -6.4542  -23.6327 C   0  0  0  0  0  0  0  0  0  0  0  0
   -3.4360   -6.9867  -22.4050 F   0  0  0  0  0  0  0  0  0  0  0  0
   -4.1629   -7.4745  -24.4229 F   0  0  0  0  0  0  0  0  0  0  0  0
   -2.7839   -6.0733  -24.0591 H   0  0  0  0  0  0  0  0  0  0  0  0
   -4.2991   -4.2194  -22.6406 C   0  0  0  0  0  0  0  0  0  0  0  0
   -5.3530   -3.1264  -22.4876 C   0  0  0  0  0  0  0  0  0  0  0  0
   -5.4832   -2.5982  -23.4494 H   0  0  0  0  0  0  0  0  0  0  0  0
   -4.9632   -2.4133  -21.7587 H   0  0  0  0  0  0  0  0  0  0  0  0
   -4.0684   -4.6019  -21.6467 H   0  0  0  0  0  0  0  0  0  0  0  0
   -3.3749   -3.7835  -23.0382 H   0  0  0  0  0  0  0  0  0  0  0  0
   -5.0272   -5.0321  -24.5133 H   0  0  0  0  0  0  0  0  0  0  0  0
   -6.4657   -6.7731  -23.4209 H   0  0  0  0  0  0  0  0  0  0  0  0
   -5.7905   -6.3486  -21.8503 H   0  0  0  0  0  0  0  0  0  0  0  0
   -7.4536   -4.5795  -23.7142 H   0  0  0  0  0  0  0  0  0  0  0  0
   -7.9591   -5.2530  -22.1621 H   0  0  0  0  0  0  0  0  0  0  0  0
  1  2  2  0
  2  3  1  0
  3  4  1  0
  4  5  2  0
  5  6  1  0
  6  7  2  0
  7  8  1  0
  8  9  2  0
  9 10  1  0
 10 11  2  0
 11 12  1  0
 12 13  2  0
 12 14  1  0
 11 15  1  0
 10 16  1  0
  9 17  1  0
  7 18  1  0
  5 19  1  0
  3 20  1  0
  3 21  1  0
  2 22  1  0
 22 23  1  0
 23 24  1  0
 24 25  1  0
 25 26  1  0
 26 27  1  0
 26 28  1  0
 26 29  1  0
 25 30  1  0
 30 31  1  0
 31 32  1  0
 31 33  1  0
 30 34  1  0
 30 35  1  0
 25 36  1  0
 24 37  1  0
 24 38  1  0
 23 39  1  0
 23 40  1  0
 13  4  1  0
 31 22  1  0
 13  8  1  0
M  END
>  <cnnaffinities>  (86) 
[5.38539, 5.28587, 4.88684, 4.88683, 4.88682, 5.48535, 5.49655, 5.51546, 5.51545, 5.51506, 5.02062, 5.03352, 5.03421]

>  <score>  (86) 
5.38539

>  <index>  (86) 
88

>  <Smiles>  (86) 
O=C(C(c1c(nc(c2c(c(c(c(c12)[H])[H])[H])[H])[H])[H])([H])[H])N1C(C(C(C(F)(F)[H])(C(C1([H])[H])([H])[H])[H])([H])[H])([H])[H]

>  <h>  (86) 
<NA>

>  <Training>  (86) 
True

>  <Success>  (86) 
True

>  <enamine_searched>  (86) 
False

>  <enamine_id>  (86) 
nan

$$$$

     RDKit          3D

 43 45  0  0  0  0  0  0  0  0999 V2000
   -6.2528    1.4957  -26.6447 C   0  0  0  0  0  0  0  0  0  0  0  0
   -7.4332    1.1173  -25.7455 C   0  0  0  0  0  0  0  0  0  0  0  0
   -8.7297    1.3501  -26.5341 C   0  0  0  0  0  0  0  0  0  0  0  0
   -9.6318    1.1129  -25.9645 H   0  0  0  0  0  0  0  0  0  0  0  0
   -8.8059    2.4002  -26.8380 H   0  0  0  0  0  0  0  0  0  0  0  0
   -8.7486    0.7407  -27.4441 H   0  0  0  0  0  0  0  0  0  0  0  0
   -7.4100    1.9896  -24.4767 C   0  0  0  0  0  0  0  0  0  0  0  0
   -8.4075    1.5286  -23.4175 C   0  0  0  0  0  0  0  0  0  0  0  0
   -8.1429    0.1334  -23.0901 N   0  0  0  0  0  0  0  0  0  0  0  0
   -8.3158   -0.2454  -21.7676 C   0  0  0  0  0  0  0  0  0  0  0  0
   -9.0489    0.3548  -21.0098 O   0  0  0  0  0  0  0  0  0  0  0  0
   -7.4708   -1.4357  -21.2972 C   0  0  0  0  0  0  0  0  0  0  0  0
   -6.4795   -1.0356  -20.2235 C   0  0  0  0  0  0  0  0  0  0  0  0
   -6.7268   -1.2972  -18.9043 C   0  0  0  0  0  0  0  0  0  0  0  0
   -5.8916   -1.0228  -17.8667 N   0  0  0  0  0  0  0  0  0  0  0  0
   -4.7643   -0.4313  -18.1645 C   0  0  0  0  0  0  0  0  0  0  0  0
   -4.4157   -0.0036  -19.4743 C   0  0  0  0  0  0  0  0  0  0  0  0
   -3.2619    0.7854  -19.7253 C   0  0  0  0  0  0  0  0  0  0  0  0
   -3.0433    1.3285  -20.9612 C   0  0  0  0  0  0  0  0  0  0  0  0
   -3.9070    1.0029  -22.0244 C   0  0  0  0  0  0  0  0  0  0  0  0
   -4.9910    0.1862  -21.8310 C   0  0  0  0  0  0  0  0  0  0  0  0
   -5.2917   -0.3153  -20.5376 C   0  0  0  0  0  0  0  0  0  0  0  0
   -5.6650   -0.0382  -22.6530 H   0  0  0  0  0  0  0  0  0  0  0  0
   -3.7396    1.4440  -23.0026 H   0  0  0  0  0  0  0  0  0  0  0  0
   -2.2278    2.0295  -21.1225 H   0  0  0  0  0  0  0  0  0  0  0  0
   -2.5859    0.9878  -18.9006 H   0  0  0  0  0  0  0  0  0  0  0  0
   -4.0776   -0.2136  -17.3452 H   0  0  0  0  0  0  0  0  0  0  0  0
   -7.6732   -1.7522  -18.6272 H   0  0  0  0  0  0  0  0  0  0  0  0
   -6.9455   -1.8617  -22.1572 H   0  0  0  0  0  0  0  0  0  0  0  0
   -8.1658   -2.1891  -20.9055 H   0  0  0  0  0  0  0  0  0  0  0  0
   -8.2397   -0.7795  -24.2298 C   0  0  0  0  0  0  0  0  0  0  0  0
   -7.2760   -0.3594  -25.3358 C   0  0  0  0  0  0  0  0  0  0  0  0
   -6.2479   -0.5128  -24.9835 H   0  0  0  0  0  0  0  0  0  0  0  0
   -7.3945   -1.0052  -26.2151 H   0  0  0  0  0  0  0  0  0  0  0  0
   -9.2673   -0.7981  -24.6271 H   0  0  0  0  0  0  0  0  0  0  0  0
   -8.0309   -1.7979  -23.8984 H   0  0  0  0  0  0  0  0  0  0  0  0
   -8.2889    2.1037  -22.4977 H   0  0  0  0  0  0  0  0  0  0  0  0
   -9.4479    1.6767  -23.7413 H   0  0  0  0  0  0  0  0  0  0  0  0
   -7.5764    3.0431  -24.7330 H   0  0  0  0  0  0  0  0  0  0  0  0
   -6.4060    1.9337  -24.0328 H   0  0  0  0  0  0  0  0  0  0  0  0
   -6.3030    2.5479  -26.9469 H   0  0  0  0  0  0  0  0  0  0  0  0
   -6.2429    0.8835  -27.5541 H   0  0  0  0  0  0  0  0  0  0  0  0
   -5.2988    1.3399  -26.1295 H   0  0  0  0  0  0  0  0  0  0  0  0
  1  2  1  0
  2  3  1  0
  3  4  1  0
  3  5  1  0
  3  6  1  0
  2  7  1  0
  7  8  1  0
  8  9  1  0
  9 10  1  0
 10 11  2  0
 10 12  1  0
 12 13  1  0
 13 14  2  0
 14 15  1  0
 15 16  2  0
 16 17  1  0
 17 18  2  0
 18 19  1  0
 19 20  2  0
 20 21  1  0
 21 22  2  0
 21 23  1  0
 20 24  1  0
 19 25  1  0
 18 26  1  0
 16 27  1  0
 14 28  1  0
 12 29  1  0
 12 30  1  0
  9 31  1  0
 31 32  1  0
 32 33  1  0
 32 34  1  0
 31 35  1  0
 31 36  1  0
  8 37  1  0
  8 38  1  0
  7 39  1  0
  7 40  1  0
  1 41  1  0
  1 42  1  0
  1 43  1  0
 32  2  1  0
 22 13  1  0
 22 17  1  0
M  END
>  <cnnaffinities>  (87) 
[5.06084, 5.06083, 5.06084, 5.06084, 4.91676, 4.91677, 4.91678, 4.97899]

>  <score>  (87) 
5.06084

>  <index>  (87) 
89

>  <Smiles>  (87) 
C(C1(C([H])([H])[H])C(C(N(C(=O)C(c2c(nc(c3c(c(c(c(c23)[H])[H])[H])[H])[H])[H])([H])[H])C(C1([H])[H])([H])[H])([H])[H])([H])[H])([H])([H])[H]

>  <h>  (87) 
<NA>

>  <Training>  (87) 
True

>  <Success>  (87) 
True

>  <enamine_searched>  (87) 
False

>  <enamine_id>  (87) 
nan

$$$$

     RDKit          3D

 64 68  0  0  0  0  0  0  0  0999 V2000
   -7.3233    3.3680  -21.8967 C   0  0  0  0  0  0  0  0  0  0  0  0
   -8.2738    2.8686  -22.8767 N   0  0  0  0  0  0  0  0  0  0  0  0
   -7.7887    2.1657  -23.9368 C   0  0  0  0  0  0  0  0  0  0  0  0
   -6.5892    1.9859  -24.0973 O   0  0  0  0  0  0  0  0  0  0  0  0
   -8.8253    1.5845  -24.9049 C   0  0  0  0  0  0  0  0  0  0  0  0
   -9.4816    0.4385  -24.3011 N   0  0  0  0  0  0  0  0  0  0  0  0
   -8.7200   -0.7928  -24.1347 C   0  0  0  0  0  0  0  0  0  0  0  0
   -9.0930   -1.5410  -22.8257 C   0  0  2  0  0  0  0  0  0  0  0  0
   -8.5300   -0.7785  -21.5957 C   0  0  0  0  0  0  0  0  0  0  0  0
   -8.9829    0.2136  -21.0610 O   0  0  0  0  0  0  0  0  0  0  0  0
   -7.3834   -1.4239  -21.1977 N   0  0  0  0  0  0  0  0  0  0  0  0
   -6.5310   -0.9473  -20.1798 C   0  0  0  0  0  0  0  0  0  0  0  0
   -6.7465   -1.2948  -18.8722 C   0  0  0  0  0  0  0  0  0  0  0  0
   -5.8527   -1.0842  -17.8779 N   0  0  0  0  0  0  0  0  0  0  0  0
   -4.7242   -0.4961  -18.1941 C   0  0  0  0  0  0  0  0  0  0  0  0
   -4.4070   -0.0273  -19.5027 C   0  0  0  0  0  0  0  0  0  0  0  0
   -3.2167    0.6999  -19.7716 C   0  0  0  0  0  0  0  0  0  0  0  0
   -3.0010    1.2383  -21.0083 C   0  0  0  0  0  0  0  0  0  0  0  0
   -3.9425    1.0392  -22.0455 C   0  0  0  0  0  0  0  0  0  0  0  0
   -5.0603    0.2682  -21.8308 C   0  0  0  0  0  0  0  0  0  0  0  0
   -5.3471   -0.2326  -20.5313 C   0  0  0  0  0  0  0  0  0  0  0  0
   -5.7496    0.0581  -22.6447 H   0  0  0  0  0  0  0  0  0  0  0  0
   -3.7825    1.4770  -23.0262 H   0  0  0  0  0  0  0  0  0  0  0  0
   -2.1256    1.8550  -21.1901 H   0  0  0  0  0  0  0  0  0  0  0  0
   -2.5448    0.8884  -18.9392 H   0  0  0  0  0  0  0  0  0  0  0  0
   -3.9956   -0.3446  -17.3951 H   0  0  0  0  0  0  0  0  0  0  0  0
   -7.6716   -1.7938  -18.5961 H   0  0  0  0  0  0  0  0  0  0  0  0
   -7.0385   -2.6021  -21.9579 C   0  0  0  0  0  0  0  0  0  0  0  0
   -8.3392   -2.9056  -22.7134 C   0  0  2  0  0  0  0  0  0  0  0  0
   -8.1041   -3.6436  -24.0301 C   0  0  0  0  0  0  0  0  0  0  0  0
   -7.4463   -5.2879  -23.7377 S   0  0  0  0  0  0  0  0  0  0  0  0
   -8.4315   -6.0452  -22.9844 O   0  0  0  0  0  0  0  0  0  0  0  0
   -6.0742   -5.1440  -23.2646 O   0  0  0  0  0  0  0  0  0  0  0  0
   -7.3367   -5.9525  -25.2366 N   0  0  0  0  0  0  0  0  0  0  0  0
   -8.5101   -6.4386  -25.9390 C   0  0  0  0  0  0  0  0  0  0  0  0
   -9.0598   -7.1188  -25.2843 H   0  0  0  0  0  0  0  0  0  0  0  0
   -8.1732   -6.9971  -26.8152 H   0  0  0  0  0  0  0  0  0  0  0  0
   -9.1867   -5.6443  -26.2856 H   0  0  0  0  0  0  0  0  0  0  0  0
   -6.5378   -5.6421  -25.7701 H   0  0  0  0  0  0  0  0  0  0  0  0
   -7.3728   -3.1092  -24.6493 H   0  0  0  0  0  0  0  0  0  0  0  0
   -9.0433   -3.7484  -24.5822 H   0  0  0  0  0  0  0  0  0  0  0  0
   -8.9258   -3.5590  -22.0645 H   0  0  0  0  0  0  0  0  0  0  0  0
   -6.1980   -2.4141  -22.6411 H   0  0  0  0  0  0  0  0  0  0  0  0
   -6.7340   -3.4249  -21.3024 H   0  0  0  0  0  0  0  0  0  0  0  0
  -10.6078   -1.6326  -22.7566 C   0  0  0  0  0  0  0  0  0  0  0  0
  -11.2386   -2.5894  -21.9492 C   0  0  0  0  0  0  0  0  0  0  0  0
  -12.6159   -2.6112  -21.8496 C   0  0  0  0  0  0  0  0  0  0  0  0
  -13.1901   -3.5256  -21.0470 F   0  0  0  0  0  0  0  0  0  0  0  0
  -13.4267   -1.7155  -22.5378 C   0  0  0  0  0  0  0  0  0  0  0  0
  -12.8135   -0.7585  -23.3212 C   0  0  0  0  0  0  0  0  0  0  0  0
  -11.4224   -0.6967  -23.4141 C   0  0  0  0  0  0  0  0  0  0  0  0
  -10.8444    0.4465  -24.1887 C   0  0  0  0  0  0  0  0  0  0  0  0
  -11.5466    1.3293  -24.6624 O   0  0  0  0  0  0  0  0  0  0  0  0
  -13.3984   -0.0217  -23.8619 H   0  0  0  0  0  0  0  0  0  0  0  0
  -14.5038   -1.7697  -22.4266 H   0  0  0  0  0  0  0  0  0  0  0  0
  -10.6811   -3.3165  -21.3690 H   0  0  0  0  0  0  0  0  0  0  0  0
   -8.9132   -1.4467  -24.9957 H   0  0  0  0  0  0  0  0  0  0  0  0
   -7.6537   -0.5440  -24.1348 H   0  0  0  0  0  0  0  0  0  0  0  0
   -8.3090    1.3018  -25.8295 H   0  0  0  0  0  0  0  0  0  0  0  0
   -9.6073    2.3058  -25.1658 H   0  0  0  0  0  0  0  0  0  0  0  0
   -9.2160    2.6870  -22.5537 H   0  0  0  0  0  0  0  0  0  0  0  0
   -6.7216    2.5442  -21.4850 H   0  0  0  0  0  0  0  0  0  0  0  0
   -7.8587    3.8936  -21.1040 H   0  0  0  0  0  0  0  0  0  0  0  0
   -6.6438    4.0871  -22.3612 H   0  0  0  0  0  0  0  0  0  0  0  0
  1  2  1  0
  2  3  1  0
  3  4  2  0
  3  5  1  0
  5  6  1  0
  6  7  1  0
  8  7  1  6
  8  9  1  0
  9 10  2  0
  9 11  1  0
 11 12  1  0
 12 13  2  0
 13 14  1  0
 14 15  2  0
 15 16  1  0
 16 17  2  0
 17 18  1  0
 18 19  2  0
 19 20  1  0
 20 21  2  0
 20 22  1  0
 19 23  1  0
 18 24  1  0
 17 25  1  0
 15 26  1  0
 13 27  1  0
 11 28  1  0
 28 29  1  0
 29 30  1  0
 30 31  1  0
 31 32  2  0
 31 33  2  0
 31 34  1  0
 34 35  1  0
 35 36  1  0
 35 37  1  0
 35 38  1  0
 34 39  1  0
 30 40  1  0
 30 41  1  0
 29 42  1  1
 28 43  1  0
 28 44  1  0
  8 45  1  0
 45 46  2  0
 46 47  1  0
 47 48  1  0
 47 49  2  0
 49 50  1  0
 50 51  2  0
 51 52  1  0
 52 53  2  0
 50 54  1  0
 49 55  1  0
 46 56  1  0
  7 57  1  0
  7 58  1  0
  5 59  1  0
  5 60  1  0
  2 61  1  0
  1 62  1  0
  1 63  1  0
  1 64  1  0
 52  6  1  0
 29  8  1  0
 51 45  1  0
 21 12  1  0
 21 16  1  0
M  END
>  <cnnaffinities>  (88) 
[7.02659, 6.88142, 6.95522]

>  <score>  (88) 
7.02659

>  <index>  (88) 
90

>  <Smiles>  (88) 
C(N(C(=O)C(N1C([C@@]2(C(=O)N(c3c(nc(c4c(c(c(c(c34)[H])[H])[H])[H])[H])[H])C([C@@]2(C(S(=O)(=O)N(C([H])([H])[H])[H])([H])[H])[H])([H])[H])c2c(c(F)c(c(c2C1=O)[H])[H])[H])([H])[H])([H])[H])[H])([H])([H])[H]

>  <h>  (88) 
<NA>

>  <Training>  (88) 
True

>  <Success>  (88) 
True

>  <enamine_searched>  (88) 
False

>  <enamine_id>  (88) 
nan

$$$$

     RDKit          3D

 66 71  0  0  0  0  0  0  0  0999 V2000
   -7.1394    3.3345  -21.9351 C   0  0  0  0  0  0  0  0  0  0  0  0
   -8.0772    2.8277  -22.9174 N   0  0  0  0  0  0  0  0  0  0  0  0
   -7.6258    2.2783  -24.0733 C   0  0  0  0  0  0  0  0  0  0  0  0
   -6.4441    2.2164  -24.3761 O   0  0  0  0  0  0  0  0  0  0  0  0
   -8.7464    1.7150  -24.9547 C   0  0  0  0  0  0  0  0  0  0  0  0
   -9.4757    0.6976  -24.2145 N   0  0  0  0  0  0  0  0  0  0  0  0
   -8.7561   -0.5511  -24.0388 C   0  0  0  0  0  0  0  0  0  0  0  0
   -9.1678   -1.3221  -22.7660 C   0  0  2  0  0  0  0  0  0  0  0  0
   -8.5866   -0.6235  -21.5061 C   0  0  0  0  0  0  0  0  0  0  0  0
   -9.0065    0.3773  -20.9648 O   0  0  0  0  0  0  0  0  0  0  0  0
   -7.4711   -1.3235  -21.1057 N   0  0  0  0  0  0  0  0  0  0  0  0
   -6.5407   -0.9031  -20.1214 C   0  0  0  0  0  0  0  0  0  0  0  0
   -6.6756   -1.3406  -18.8271 C   0  0  0  0  0  0  0  0  0  0  0  0
   -5.7708   -1.1062  -17.8460 N   0  0  0  0  0  0  0  0  0  0  0  0
   -4.6837   -0.4518  -18.1654 C   0  0  0  0  0  0  0  0  0  0  0  0
   -4.3945    0.0237  -19.4770 C   0  0  0  0  0  0  0  0  0  0  0  0
   -3.1800    0.6914  -19.7869 C   0  0  0  0  0  0  0  0  0  0  0  0
   -2.9495    1.1605  -21.0489 C   0  0  0  0  0  0  0  0  0  0  0  0
   -3.9148    0.9821  -22.0627 C   0  0  0  0  0  0  0  0  0  0  0  0
   -5.0913    0.3234  -21.7935 C   0  0  0  0  0  0  0  0  0  0  0  0
   -5.3532   -0.1931  -20.4918 C   0  0  0  0  0  0  0  0  0  0  0  0
   -5.8426    0.2415  -22.5743 H   0  0  0  0  0  0  0  0  0  0  0  0
   -3.7380    1.3714  -23.0595 H   0  0  0  0  0  0  0  0  0  0  0  0
   -2.0261    1.6826  -21.2766 H   0  0  0  0  0  0  0  0  0  0  0  0
   -2.4785    0.8719  -18.9789 H   0  0  0  0  0  0  0  0  0  0  0  0
   -3.9703   -0.2585  -17.3644 H   0  0  0  0  0  0  0  0  0  0  0  0
   -7.5690   -1.8946  -18.5416 H   0  0  0  0  0  0  0  0  0  0  0  0
   -7.1383   -2.4418  -21.9547 C   0  0  0  0  0  0  0  0  0  0  0  0
   -8.4402   -2.7037  -22.7236 C   0  0  2  0  0  0  0  0  0  0  0  0
   -8.1880   -3.3884  -24.0700 C   0  0  0  0  0  0  0  0  0  0  0  0
   -7.4488   -4.6142  -23.8681 N   0  0  0  0  0  0  0  0  0  0  0  0
   -6.9925   -5.3758  -24.8857 C   0  0  0  0  0  0  0  0  0  0  0  0
   -5.8703   -7.2232  -25.5514 C   0  0  0  0  0  0  0  0  0  0  0  0
   -6.3169   -6.4899  -24.5421 N   0  0  0  0  0  0  0  0  0  0  0  0
   -6.1143   -6.9172  -26.8953 C   0  0  0  0  0  0  0  0  0  0  0  0
   -6.8140   -5.7387  -27.1185 C   0  0  0  0  0  0  0  0  0  0  0  0
   -7.2667   -4.9660  -26.1347 N   0  0  0  0  0  0  0  0  0  0  0  0
   -7.0374   -5.3729  -28.1225 H   0  0  0  0  0  0  0  0  0  0  0  0
   -5.7831   -7.5703  -27.6994 H   0  0  0  0  0  0  0  0  0  0  0  0
   -5.3274   -8.1232  -25.2702 H   0  0  0  0  0  0  0  0  0  0  0  0
   -7.2879   -4.9557  -22.9407 H   0  0  0  0  0  0  0  0  0  0  0  0
   -9.1358   -3.5831  -24.5889 H   0  0  0  0  0  0  0  0  0  0  0  0
   -7.5898   -2.7439  -24.7259 H   0  0  0  0  0  0  0  0  0  0  0  0
   -9.0555   -3.3754  -22.1157 H   0  0  0  0  0  0  0  0  0  0  0  0
   -6.8322   -3.2933  -21.3383 H   0  0  0  0  0  0  0  0  0  0  0  0
   -6.2967   -2.2033  -22.6301 H   0  0  0  0  0  0  0  0  0  0  0  0
  -10.6853   -1.3598  -22.7284 C   0  0  0  0  0  0  0  0  0  0  0  0
  -11.3532   -2.3188  -21.9580 C   0  0  0  0  0  0  0  0  0  0  0  0
  -12.7357   -2.3393  -21.9070 C   0  0  0  0  0  0  0  0  0  0  0  0
  -13.5269   -3.5471  -20.9315 Cl  0  0  0  0  0  0  0  0  0  0  0  0
  -13.5096   -1.4135  -22.6057 C   0  0  0  0  0  0  0  0  0  0  0  0
  -12.8616   -0.4514  -23.3555 C   0  0  0  0  0  0  0  0  0  0  0  0
  -11.4677   -0.4082  -23.4083 C   0  0  0  0  0  0  0  0  0  0  0  0
  -10.8478    0.7036  -24.2057 C   0  0  0  0  0  0  0  0  0  0  0  0
  -11.5167    1.5584  -24.7728 O   0  0  0  0  0  0  0  0  0  0  0  0
  -13.4168    0.3003  -23.9089 H   0  0  0  0  0  0  0  0  0  0  0  0
  -14.5926   -1.4502  -22.5434 H   0  0  0  0  0  0  0  0  0  0  0  0
  -10.8078   -3.0533  -21.3769 H   0  0  0  0  0  0  0  0  0  0  0  0
   -7.6860   -0.3221  -24.0069 H   0  0  0  0  0  0  0  0  0  0  0  0
   -8.9493   -1.1929  -24.9078 H   0  0  0  0  0  0  0  0  0  0  0  0
   -8.2880    1.3013  -25.8607 H   0  0  0  0  0  0  0  0  0  0  0  0
   -9.4668    2.4887  -25.2375 H   0  0  0  0  0  0  0  0  0  0  0  0
   -8.9896    2.5345  -22.5905 H   0  0  0  0  0  0  0  0  0  0  0  0
   -6.4077    3.9777  -22.4326 H   0  0  0  0  0  0  0  0  0  0  0  0
   -6.5978    2.5157  -21.4358 H   0  0  0  0  0  0  0  0  0  0  0  0
   -7.6907    3.9276  -21.1992 H   0  0  0  0  0  0  0  0  0  0  0  0
  1  2  1  0
  2  3  1  0
  3  4  2  0
  3  5  1  0
  5  6  1  0
  6  7  1  0
  8  7  1  6
  8  9  1  0
  9 10  2  0
  9 11  1  0
 11 12  1  0
 12 13  2  0
 13 14  1  0
 14 15  2  0
 15 16  1  0
 16 17  2  0
 17 18  1  0
 18 19  2  0
 19 20  1  0
 20 21  2  0
 20 22  1  0
 19 23  1  0
 18 24  1  0
 17 25  1  0
 15 26  1  0
 13 27  1  0
 11 28  1  0
 28 29  1  0
 29 30  1  0
 30 31  1  0
 31 32  1  0
 32 33  2  0
 33 34  1  0
 34 35  2  0
 35 36  1  0
 36 37  2  0
 36 38  1  0
 35 39  1  0
 33 40  1  0
 31 41  1  0
 30 42  1  0
 30 43  1  0
 29 44  1  1
 28 45  1  0
 28 46  1  0
  8 47  1  0
 47 48  2  0
 48 49  1  0
 49 50  1  0
 49 51  2  0
 51 52  1  0
 52 53  2  0
 53 54  1  0
 54 55  2  0
 52 56  1  0
 51 57  1  0
 48 58  1  0
  7 59  1  0
  7 60  1  0
  5 61  1  0
  5 62  1  0
  2 63  1  0
  1 64  1  0
  1 65  1  0
  1 66  1  0
 54  6  1  0
 29  8  1  0
 37 32  1  0
 53 47  1  0
 21 12  1  0
 21 16  1  0
M  END
>  <cnnaffinities>  (89) 
[7.20506]

>  <score>  (89) 
7.20506

>  <index>  (89) 
91

>  <Smiles>  (89) 
C(N(C(=O)C(N1C([C@@]2(C(=O)N(c3c(nc(c4c(c(c(c(c34)[H])[H])[H])[H])[H])[H])C([C@@]2(C(N(c2c(nc(c(n2)[H])[H])[H])[H])([H])[H])[H])([H])[H])c2c(c(Cl)c(c(c2C1=O)[H])[H])[H])([H])[H])([H])[H])[H])([H])([H])[H]

>  <h>  (89) 
<NA>

>  <Training>  (89) 
True

>  <Success>  (89) 
True

>  <enamine_searched>  (89) 
False

>  <enamine_id>  (89) 
nan

$$$$

     RDKit          3D

 60 65  0  0  0  0  0  0  0  0999 V2000
   -8.2964   -6.0212  -23.7718 C   0  0  0  0  0  0  0  0  0  0  0  0
   -7.4204   -4.9246  -23.7714 O   0  0  0  0  0  0  0  0  0  0  0  0
   -8.0564   -3.6870  -24.0099 C   0  0  0  0  0  0  0  0  0  0  0  0
   -8.3391   -2.9572  -22.6980 C   0  0  1  0  0  0  0  0  0  0  0  0
   -7.0347   -2.5937  -21.9722 C   0  0  0  0  0  0  0  0  0  0  0  0
   -7.3835   -1.4080  -21.2288 N   0  0  0  0  0  0  0  0  0  0  0  0
   -6.5312   -0.9313  -20.2068 C   0  0  0  0  0  0  0  0  0  0  0  0
   -6.7854   -1.2239  -18.8936 C   0  0  0  0  0  0  0  0  0  0  0  0
   -5.9376   -0.9523  -17.8697 N   0  0  0  0  0  0  0  0  0  0  0  0
   -4.8123   -0.3476  -18.1591 C   0  0  0  0  0  0  0  0  0  0  0  0
   -4.4533    0.0648  -19.4728 C   0  0  0  0  0  0  0  0  0  0  0  0
   -3.2896    0.8326  -19.7241 C   0  0  0  0  0  0  0  0  0  0  0  0
   -3.0550    1.3425  -20.9732 C   0  0  0  0  0  0  0  0  0  0  0  0
   -3.9085    1.0055  -22.0499 C   0  0  0  0  0  0  0  0  0  0  0  0
   -5.0000    0.1981  -21.8466 C   0  0  0  0  0  0  0  0  0  0  0  0
   -5.3273   -0.2420  -20.5367 C   0  0  0  0  0  0  0  0  0  0  0  0
   -5.6303   -0.1132  -22.6768 H   0  0  0  0  0  0  0  0  0  0  0  0
   -3.7099    1.4254  -23.0337 H   0  0  0  0  0  0  0  0  0  0  0  0
   -2.2153    2.0087  -21.1478 H   0  0  0  0  0  0  0  0  0  0  0  0
   -2.6482    1.0672  -18.8791 H   0  0  0  0  0  0  0  0  0  0  0  0
   -4.1234   -0.1200  -17.3427 H   0  0  0  0  0  0  0  0  0  0  0  0
   -7.7071   -1.7409  -18.6400 H   0  0  0  0  0  0  0  0  0  0  0  0
   -8.5841   -0.8315  -21.5780 C   0  0  0  0  0  0  0  0  0  0  0  0
   -9.0774    0.1291  -21.0303 O   0  0  0  0  0  0  0  0  0  0  0  0
   -9.1526   -1.6334  -22.7845 C   0  0  1  0  0  0  0  0  0  0  0  0
   -8.8488   -0.9061  -24.1189 C   0  0  0  0  0  0  0  0  0  0  0  0
   -9.6452    0.2874  -24.3004 N   0  0  0  0  0  0  0  0  0  0  0  0
   -8.9984    1.4962  -24.7880 C   0  0  0  0  0  0  0  0  0  0  0  0
   -8.4024    2.3408  -23.6897 C   0  0  0  0  0  0  0  0  0  0  0  0
   -7.0520    2.5505  -23.3307 C   0  0  0  0  0  0  0  0  0  0  0  0
   -6.9141    3.3993  -22.3169 N   0  0  0  0  0  0  0  0  0  0  0  0
   -8.1738    3.7424  -22.0218 N   0  0  0  0  0  0  0  0  0  0  0  0
   -9.0984    3.1270  -22.7987 C   0  0  0  0  0  0  0  0  0  0  0  0
  -10.1610    3.2770  -22.6429 H   0  0  0  0  0  0  0  0  0  0  0  0
   -8.3570    4.3650  -21.2463 H   0  0  0  0  0  0  0  0  0  0  0  0
   -6.1633    2.0940  -23.7480 H   0  0  0  0  0  0  0  0  0  0  0  0
   -9.7490    2.0663  -25.3425 H   0  0  0  0  0  0  0  0  0  0  0  0
   -8.2320    1.2024  -25.5133 H   0  0  0  0  0  0  0  0  0  0  0  0
  -10.9941    0.2957  -24.0780 C   0  0  0  0  0  0  0  0  0  0  0  0
  -11.7176    1.1981  -24.4738 O   0  0  0  0  0  0  0  0  0  0  0  0
  -11.5244   -0.8650  -23.2897 C   0  0  0  0  0  0  0  0  0  0  0  0
  -12.9079   -0.9688  -23.1330 C   0  0  0  0  0  0  0  0  0  0  0  0
  -13.4601   -1.9312  -22.3144 C   0  0  0  0  0  0  0  0  0  0  0  0
  -12.5906   -2.7853  -21.6423 C   0  0  0  0  0  0  0  0  0  0  0  0
  -13.2479   -3.9290  -20.5178 Cl  0  0  0  0  0  0  0  0  0  0  0  0
  -11.2208   -2.7249  -21.8140 C   0  0  0  0  0  0  0  0  0  0  0  0
  -10.6571   -1.7718  -22.6661 C   0  0  0  0  0  0  0  0  0  0  0  0
  -10.6013   -3.4098  -21.2485 H   0  0  0  0  0  0  0  0  0  0  0  0
  -14.5327   -2.0140  -22.1596 H   0  0  0  0  0  0  0  0  0  0  0  0
  -13.5417   -0.2560  -23.6429 H   0  0  0  0  0  0  0  0  0  0  0  0
   -7.7891   -0.6360  -24.1673 H   0  0  0  0  0  0  0  0  0  0  0  0
   -9.0453   -1.6002  -24.9442 H   0  0  0  0  0  0  0  0  0  0  0  0
   -6.2000   -2.4165  -22.6704 H   0  0  0  0  0  0  0  0  0  0  0  0
   -6.7195   -3.3739  -21.2760 H   0  0  0  0  0  0  0  0  0  0  0  0
   -8.8806   -3.6494  -22.0483 H   0  0  0  0  0  0  0  0  0  0  0  0
   -8.9780   -3.8163  -24.6016 H   0  0  0  0  0  0  0  0  0  0  0  0
   -7.3551   -3.0886  -24.6078 H   0  0  0  0  0  0  0  0  0  0  0  0
   -7.7183   -6.9030  -23.4849 H   0  0  0  0  0  0  0  0  0  0  0  0
   -9.1241   -5.8949  -23.0564 H   0  0  0  0  0  0  0  0  0  0  0  0
   -8.7218   -6.1922  -24.7722 H   0  0  0  0  0  0  0  0  0  0  0  0
  1  2  1  0
  2  3  1  0
  3  4  1  0
  4  5  1  0
  5  6  1  0
  6  7  1  0
  7  8  2  0
  8  9  1  0
  9 10  2  0
 10 11  1  0
 11 12  2  0
 12 13  1  0
 13 14  2  0
 14 15  1  0
 15 16  2  0
 15 17  1  0
 14 18  1  0
 13 19  1  0
 12 20  1  0
 10 21  1  0
  8 22  1  0
  6 23  1  0
 23 24  2  0
 23 25  1  0
 25 26  1  6
 26 27  1  0
 27 28  1  0
 28 29  1  0
 29 30  1  0
 30 31  2  0
 31 32  1  0
 32 33  1  0
 33 34  1  0
 32 35  1  0
 30 36  1  0
 28 37  1  0
 28 38  1  0
 27 39  1  0
 39 40  2  0
 39 41  1  0
 41 42  2  0
 42 43  1  0
 43 44  2  0
 44 45  1  0
 44 46  1  0
 46 47  2  0
 46 48  1  0
 43 49  1  0
 42 50  1  0
 26 51  1  0
 26 52  1  0
  5 53  1  0
  5 54  1  0
  4 55  1  1
  3 56  1  0
  3 57  1  0
  1 58  1  0
  1 59  1  0
  1 60  1  0
 25  4  1  0
 33 29  2  0
 47 41  1  0
 16  7  1  0
 47 25  1  0
 16 11  1  0
M  END
>  <cnnaffinities>  (90) 
[6.60957, 6.57385, 6.42643]

>  <score>  (90) 
6.60957

>  <index>  (90) 
92

>  <Smiles>  (90) 
C(OC([C@]1(C(N(c2c(nc(c3c(c(c(c(c23)[H])[H])[H])[H])[H])[H])C(=O)[C@]21C(N(C(c1c(nn(c1[H])[H])[H])([H])[H])C(=O)c1c(c(c(Cl)c(c21)[H])[H])[H])([H])[H])([H])[H])[H])([H])[H])([H])([H])[H]

>  <h>  (90) 
<NA>

>  <Training>  (90) 
True

>  <Success>  (90) 
True

>  <enamine_searched>  (90) 
False

>  <enamine_id>  (90) 
nan

$$$$

     RDKit          3D

 62 67  0  0  0  0  0  0  0  0999 V2000
  -11.6461    3.1704  -22.7201 C   0  0  0  0  0  0  0  0  0  0  0  0
  -10.8225    1.9266  -22.4158 C   0  0  0  0  0  0  0  0  0  0  0  0
   -9.4865    1.9656  -22.9842 N   0  0  0  0  0  0  0  0  0  0  0  0
   -8.5244    2.5478  -22.2484 N   0  0  0  0  0  0  0  0  0  0  0  0
   -7.4304    2.5022  -22.9953 C   0  0  0  0  0  0  0  0  0  0  0  0
   -7.6896    1.9034  -24.2479 C   0  0  0  0  0  0  0  0  0  0  0  0
   -9.0311    1.5723  -24.2057 C   0  0  0  0  0  0  0  0  0  0  0  0
   -9.8640    0.8131  -25.1994 C   0  0  0  0  0  0  0  0  0  0  0  0
  -10.3337   -0.4452  -24.6311 N   0  0  0  0  0  0  0  0  0  0  0  0
   -9.3440   -1.4570  -24.3072 C   0  0  0  0  0  0  0  0  0  0  0  0
   -9.5518   -2.1124  -22.9184 C   0  0  2  0  0  0  0  0  0  0  0  0
   -8.9131   -1.2663  -21.7684 C   0  0  0  0  0  0  0  0  0  0  0  0
   -9.4527   -0.4378  -21.0716 O   0  0  0  0  0  0  0  0  0  0  0  0
   -7.5916   -1.6487  -21.6420 N   0  0  0  0  0  0  0  0  0  0  0  0
   -6.7746   -1.3186  -20.5399 C   0  0  0  0  0  0  0  0  0  0  0  0
   -7.0611   -1.7531  -19.2691 C   0  0  0  0  0  0  0  0  0  0  0  0
   -6.2203   -1.5905  -18.2189 N   0  0  0  0  0  0  0  0  0  0  0  0
   -5.0728   -0.9931  -18.4255 C   0  0  0  0  0  0  0  0  0  0  0  0
   -4.6384   -0.5356  -19.7026 C   0  0  0  0  0  0  0  0  0  0  0  0
   -3.3741    0.0689  -19.9213 C   0  0  0  0  0  0  0  0  0  0  0  0
   -3.0005    0.4565  -21.1781 C   0  0  0  0  0  0  0  0  0  0  0  0
   -3.8560    0.2490  -22.2820 C   0  0  0  0  0  0  0  0  0  0  0  0
   -5.0836   -0.3325  -22.0954 C   0  0  0  0  0  0  0  0  0  0  0  0
   -5.5060   -0.7209  -20.7978 C   0  0  0  0  0  0  0  0  0  0  0  0
   -5.7417   -0.5136  -22.9379 H   0  0  0  0  0  0  0  0  0  0  0  0
   -3.5336    0.5269  -23.2804 H   0  0  0  0  0  0  0  0  0  0  0  0
   -2.0386    0.9294  -21.3418 H   0  0  0  0  0  0  0  0  0  0  0  0
   -2.7175    0.2172  -19.0707 H   0  0  0  0  0  0  0  0  0  0  0  0
   -4.4166   -0.8561  -17.5627 H   0  0  0  0  0  0  0  0  0  0  0  0
   -7.9939   -2.2754  -19.0553 H   0  0  0  0  0  0  0  0  0  0  0  0
   -7.2638   -2.8297  -22.4116 C   0  0  0  0  0  0  0  0  0  0  0  0
   -8.6498   -3.3800  -22.7612 C   0  0  2  0  0  0  0  0  0  0  0  0
   -8.6190   -4.4042  -23.8832 C   0  0  0  0  0  0  0  0  0  0  0  0
   -9.6222   -4.7622  -24.1342 H   0  0  0  0  0  0  0  0  0  0  0  0
   -8.0105   -5.2688  -23.5914 H   0  0  0  0  0  0  0  0  0  0  0  0
   -8.1689   -3.9903  -24.7932 H   0  0  0  0  0  0  0  0  0  0  0  0
   -8.9891   -3.8687  -21.8413 H   0  0  0  0  0  0  0  0  0  0  0  0
   -6.6670   -2.5964  -23.3091 H   0  0  0  0  0  0  0  0  0  0  0  0
   -6.6704   -3.5188  -21.8012 H   0  0  0  0  0  0  0  0  0  0  0  0
  -11.0356   -2.3301  -22.6936 C   0  0  0  0  0  0  0  0  0  0  0  0
  -11.4689   -3.2119  -21.6937 C   0  0  0  0  0  0  0  0  0  0  0  0
  -12.8011   -3.2626  -21.3422 C   0  0  0  0  0  0  0  0  0  0  0  0
  -13.1761   -4.0785  -20.3411 F   0  0  0  0  0  0  0  0  0  0  0  0
  -13.7780   -2.5053  -21.9720 C   0  0  0  0  0  0  0  0  0  0  0  0
  -13.3768   -1.6814  -23.0085 C   0  0  0  0  0  0  0  0  0  0  0  0
  -12.0303   -1.6143  -23.3817 C   0  0  0  0  0  0  0  0  0  0  0  0
  -11.6768   -0.6801  -24.4999 C   0  0  0  0  0  0  0  0  0  0  0  0
  -12.5264   -0.1043  -25.1600 O   0  0  0  0  0  0  0  0  0  0  0  0
  -14.0980   -1.0722  -23.5452 H   0  0  0  0  0  0  0  0  0  0  0  0
  -14.8084   -2.5875  -21.6430 H   0  0  0  0  0  0  0  0  0  0  0  0
  -10.7899   -3.8697  -21.1657 H   0  0  0  0  0  0  0  0  0  0  0  0
   -9.3678   -2.2436  -25.0717 H   0  0  0  0  0  0  0  0  0  0  0  0
   -8.3581   -0.9923  -24.3542 H   0  0  0  0  0  0  0  0  0  0  0  0
   -9.2504    0.6281  -26.0918 H   0  0  0  0  0  0  0  0  0  0  0  0
  -10.7396    1.3769  -25.5357 H   0  0  0  0  0  0  0  0  0  0  0  0
   -6.9994    1.6821  -25.0556 H   0  0  0  0  0  0  0  0  0  0  0  0
   -6.5130    2.9265  -22.6054 H   0  0  0  0  0  0  0  0  0  0  0  0
  -11.3414    1.0303  -22.7644 H   0  0  0  0  0  0  0  0  0  0  0  0
  -10.6701    1.8024  -21.3443 H   0  0  0  0  0  0  0  0  0  0  0  0
  -12.0084    3.1587  -23.7536 H   0  0  0  0  0  0  0  0  0  0  0  0
  -11.0602    4.0804  -22.5652 H   0  0  0  0  0  0  0  0  0  0  0  0
  -12.5201    3.2168  -22.0628 H   0  0  0  0  0  0  0  0  0  0  0  0
  1  2  1  0
  2  3  1  0
  3  4  1  0
  4  5  2  0
  5  6  1  0
  6  7  2  0
  7  8  1  0
  8  9  1  0
  9 10  1  0
 11 10  1  6
 11 12  1  0
 12 13  2  0
 12 14  1  0
 14 15  1  0
 15 16  2  0
 16 17  1  0
 17 18  2  0
 18 19  1  0
 19 20  2  0
 20 21  1  0
 21 22  2  0
 22 23  1  0
 23 24  2  0
 23 25  1  0
 22 26  1  0
 21 27  1  0
 20 28  1  0
 18 29  1  0
 16 30  1  0
 14 31  1  0
 31 32  1  0
 32 33  1  0
 33 34  1  0
 33 35  1  0
 33 36  1  0
 32 37  1  1
 31 38  1  0
 31 39  1  0
 11 40  1  0
 40 41  2  0
 41 42  1  0
 42 43  1  0
 42 44  2  0
 44 45  1  0
 45 46  2  0
 46 47  1  0
 47 48  2  0
 45 49  1  0
 44 50  1  0
 41 51  1  0
 10 52  1  0
 10 53  1  0
  8 54  1  0
  8 55  1  0
  6 56  1  0
  5 57  1  0
  2 58  1  0
  2 59  1  0
  1 60  1  0
  1 61  1  0
  1 62  1  0
  7  3  1  0
 47  9  1  0
 32 11  1  0
 46 40  1  0
 24 15  1  0
 24 19  1  0
M  END
>  <cnnaffinities>  (91) 
[6.7401]

>  <score>  (91) 
6.7401

>  <index>  (91) 
93

>  <Smiles>  (91) 
C(C(n1nc(c(c1C(N1C([C@@]2(C(=O)N(c3c(nc(c4c(c(c(c(c34)[H])[H])[H])[H])[H])[H])C([C@@]2(C([H])([H])[H])[H])([H])[H])c2c(c(F)c(c(c2C1=O)[H])[H])[H])([H])[H])([H])[H])[H])[H])([H])[H])([H])([H])[H]

>  <h>  (91) 
<NA>

>  <Training>  (91) 
True

>  <Success>  (91) 
True

>  <enamine_searched>  (91) 
False

>  <enamine_id>  (91) 
nan

$$$$

     RDKit          3D

 66 71  0  0  0  0  0  0  0  0999 V2000
   -7.2816    3.3805  -21.9077 C   0  0  0  0  0  0  0  0  0  0  0  0
   -8.1763    2.9273  -22.9566 N   0  0  0  0  0  0  0  0  0  0  0  0
   -7.6392    2.2223  -23.9876 C   0  0  0  0  0  0  0  0  0  0  0  0
   -6.4364    2.0402  -24.0892 O   0  0  0  0  0  0  0  0  0  0  0  0
   -8.6249    1.6404  -25.0027 C   0  0  0  0  0  0  0  0  0  0  0  0
   -9.3232    0.5064  -24.4238 N   0  0  0  0  0  0  0  0  0  0  0  0
   -8.5819   -0.7359  -24.2396 C   0  0  0  0  0  0  0  0  0  0  0  0
   -9.0161   -1.4880  -22.9539 C   0  0  2  0  0  0  0  0  0  0  0  0
   -8.4782   -0.7460  -21.6998 C   0  0  0  0  0  0  0  0  0  0  0  0
   -8.9000    0.2812  -21.2092 O   0  0  0  0  0  0  0  0  0  0  0  0
   -7.3993   -1.4497  -21.2222 N   0  0  0  0  0  0  0  0  0  0  0  0
   -6.5350   -0.9707  -20.2113 C   0  0  0  0  0  0  0  0  0  0  0  0
   -6.7668   -1.2935  -18.9018 C   0  0  0  0  0  0  0  0  0  0  0  0
   -5.8794   -1.0749  -17.9008 N   0  0  0  0  0  0  0  0  0  0  0  0
   -4.7509   -0.4857  -18.2022 C   0  0  0  0  0  0  0  0  0  0  0  0
   -4.4187   -0.0338  -19.5094 C   0  0  0  0  0  0  0  0  0  0  0  0
   -3.2374    0.7076  -19.7679 C   0  0  0  0  0  0  0  0  0  0  0  0
   -3.0171    1.2521  -21.0026 C   0  0  0  0  0  0  0  0  0  0  0  0
   -3.9421    1.0310  -22.0539 C   0  0  0  0  0  0  0  0  0  0  0  0
   -5.0514    0.2467  -21.8460 C   0  0  0  0  0  0  0  0  0  0  0  0
   -5.3481   -0.2565  -20.5499 C   0  0  0  0  0  0  0  0  0  0  0  0
   -5.7243    0.0305  -22.6693 H   0  0  0  0  0  0  0  0  0  0  0  0
   -3.7768    1.4753  -23.0305 H   0  0  0  0  0  0  0  0  0  0  0  0
   -2.1547    1.8859  -21.1751 H   0  0  0  0  0  0  0  0  0  0  0  0
   -2.5741    0.9035  -18.9306 H   0  0  0  0  0  0  0  0  0  0  0  0
   -4.0319   -0.3229  -17.3959 H   0  0  0  0  0  0  0  0  0  0  0  0
   -7.6962   -1.7912  -18.6365 H   0  0  0  0  0  0  0  0  0  0  0  0
   -7.0605   -2.6301  -21.9784 C   0  0  0  0  0  0  0  0  0  0  0  0
   -8.3075   -2.8745  -22.8290 C   0  0  2  0  0  0  0  0  0  0  0  0
   -7.9388   -3.6224  -24.1051 C   0  0  0  0  0  0  0  0  0  0  0  0
   -9.1059   -3.9844  -24.8739 N   0  0  0  0  0  0  0  0  0  0  0  0
   -8.9989   -4.5991  -26.0800 C   0  0  0  0  0  0  0  0  0  0  0  0
  -10.1425   -4.9229  -26.8404 C   0  0  0  0  0  0  0  0  0  0  0  0
   -9.9222   -5.5349  -28.0496 C   0  0  0  0  0  0  0  0  0  0  0  0
   -8.6976   -5.8275  -28.5175 N   0  0  0  0  0  0  0  0  0  0  0  0
   -7.7010   -5.4883  -27.7144 C   0  0  0  0  0  0  0  0  0  0  0  0
   -7.7666   -4.8897  -26.5233 N   0  0  0  0  0  0  0  0  0  0  0  0
   -6.6999   -5.7263  -28.0762 H   0  0  0  0  0  0  0  0  0  0  0  0
  -10.7633   -5.8078  -28.6890 H   0  0  0  0  0  0  0  0  0  0  0  0
  -11.1480   -4.7106  -26.4866 H   0  0  0  0  0  0  0  0  0  0  0  0
  -10.0180   -3.7076  -24.5426 H   0  0  0  0  0  0  0  0  0  0  0  0
   -7.3857   -4.5349  -23.8490 H   0  0  0  0  0  0  0  0  0  0  0  0
   -7.2681   -3.0207  -24.7351 H   0  0  0  0  0  0  0  0  0  0  0  0
   -8.9710   -3.5285  -22.2566 H   0  0  0  0  0  0  0  0  0  0  0  0
   -6.8409   -3.4696  -21.3096 H   0  0  0  0  0  0  0  0  0  0  0  0
   -6.1680   -2.4779  -22.6059 H   0  0  0  0  0  0  0  0  0  0  0  0
  -10.5339   -1.5310  -22.9056 C   0  0  0  0  0  0  0  0  0  0  0  0
  -11.1910   -2.4131  -22.0369 C   0  0  0  0  0  0  0  0  0  0  0  0
  -12.5723   -2.4159  -21.9499 C   0  0  0  0  0  0  0  0  0  0  0  0
  -13.3488   -3.5102  -20.8392 Cl  0  0  0  0  0  0  0  0  0  0  0  0
  -13.3511   -1.5417  -22.7073 C   0  0  0  0  0  0  0  0  0  0  0  0
  -12.7090   -0.6309  -23.5231 C   0  0  0  0  0  0  0  0  0  0  0  0
  -11.3161   -0.5959  -23.5999 C   0  0  0  0  0  0  0  0  0  0  0  0
  -10.6922    0.5280  -24.3740 C   0  0  0  0  0  0  0  0  0  0  0  0
  -11.3625    1.4103  -24.8889 O   0  0  0  0  0  0  0  0  0  0  0  0
  -13.2710    0.0980  -24.0960 H   0  0  0  0  0  0  0  0  0  0  0  0
  -14.4327   -1.5556  -22.6213 H   0  0  0  0  0  0  0  0  0  0  0  0
  -10.6398   -3.0774  -21.3818 H   0  0  0  0  0  0  0  0  0  0  0  0
   -8.7325   -1.3876  -25.1128 H   0  0  0  0  0  0  0  0  0  0  0  0
   -7.5137   -0.5028  -24.1848 H   0  0  0  0  0  0  0  0  0  0  0  0
   -8.0680    1.3338  -25.8956 H   0  0  0  0  0  0  0  0  0  0  0  0
   -9.3786    2.3711  -25.3101 H   0  0  0  0  0  0  0  0  0  0  0  0
   -9.1338    2.7441  -22.6998 H   0  0  0  0  0  0  0  0  0  0  0  0
   -7.8639    3.8527  -21.1172 H   0  0  0  0  0  0  0  0  0  0  0  0
   -6.5876    4.1252  -22.3014 H   0  0  0  0  0  0  0  0  0  0  0  0
   -6.7003    2.5380  -21.5110 H   0  0  0  0  0  0  0  0  0  0  0  0
  1  2  1  0
  2  3  1  0
  3  4  2  0
  3  5  1  0
  5  6  1  0
  6  7  1  0
  8  7  1  6
  8  9  1  0
  9 10  2  0
  9 11  1  0
 11 12  1  0
 12 13  2  0
 13 14  1  0
 14 15  2  0
 15 16  1  0
 16 17  2  0
 17 18  1  0
 18 19  2  0
 19 20  1  0
 20 21  2  0
 20 22  1  0
 19 23  1  0
 18 24  1  0
 17 25  1  0
 15 26  1  0
 13 27  1  0
 11 28  1  0
 28 29  1  0
 29 30  1  0
 30 31  1  0
 31 32  1  0
 32 33  2  0
 33 34  1  0
 34 35  2  0
 35 36  1  0
 36 37  2  0
 36 38  1  0
 34 39  1  0
 33 40  1  0
 31 41  1  0
 30 42  1  0
 30 43  1  0
 29 44  1  1
 28 45  1  0
 28 46  1  0
  8 47  1  0
 47 48  2  0
 48 49  1  0
 49 50  1  0
 49 51  2  0
 51 52  1  0
 52 53  2  0
 53 54  1  0
 54 55  2  0
 52 56  1  0
 51 57  1  0
 48 58  1  0
  7 59  1  0
  7 60  1  0
  5 61  1  0
  5 62  1  0
  2 63  1  0
  1 64  1  0
  1 65  1  0
  1 66  1  0
 54  6  1  0
 29  8  1  0
 37 32  1  0
 53 47  1  0
 21 12  1  0
 21 16  1  0
M  END
>  <cnnaffinities>  (92) 
[6.72606, 6.73146, 7.19985]

>  <score>  (92) 
6.72606

>  <index>  (92) 
95

>  <Smiles>  (92) 
C(N(C(=O)C(N1C([C@@]2(C(=O)N(c3c(nc(c4c(c(c(c(c34)[H])[H])[H])[H])[H])[H])C([C@@]2(C(N(c2c(c(nc(n2)[H])[H])[H])[H])([H])[H])[H])([H])[H])c2c(c(Cl)c(c(c2C1=O)[H])[H])[H])([H])[H])([H])[H])[H])([H])([H])[H]

>  <h>  (92) 
<NA>

>  <Training>  (92) 
True

>  <Success>  (92) 
True

>  <enamine_searched>  (92) 
False

>  <enamine_id>  (92) 
nan

$$$$

     RDKit          3D

 66 70  0  0  0  0  0  0  0  0999 V2000
   -7.3980    3.2846  -21.9337 C   0  0  0  0  0  0  0  0  0  0  0  0
   -8.4071    2.7526  -22.8352 N   0  0  0  0  0  0  0  0  0  0  0  0
   -8.0040    2.0528  -23.9274 C   0  0  0  0  0  0  0  0  0  0  0  0
   -6.8186    1.8722  -24.1676 O   0  0  0  0  0  0  0  0  0  0  0  0
   -9.1027    1.4742  -24.8301 C   0  0  0  0  0  0  0  0  0  0  0  0
   -9.6687    0.2783  -24.2318 N   0  0  0  0  0  0  0  0  0  0  0  0
   -8.8272   -0.9026  -24.0996 C   0  0  0  0  0  0  0  0  0  0  0  0
   -9.1159   -1.6952  -22.7931 C   0  0  2  0  0  0  0  0  0  0  0  0
   -8.5579   -0.9132  -21.5683 C   0  0  0  0  0  0  0  0  0  0  0  0
   -9.0552    0.0427  -21.0112 O   0  0  0  0  0  0  0  0  0  0  0  0
   -7.3586   -1.4817  -21.2083 N   0  0  0  0  0  0  0  0  0  0  0  0
   -6.5254   -0.9666  -20.1864 C   0  0  0  0  0  0  0  0  0  0  0  0
   -6.7398   -1.3076  -18.8753 C   0  0  0  0  0  0  0  0  0  0  0  0
   -5.8453   -1.0868  -17.8809 N   0  0  0  0  0  0  0  0  0  0  0  0
   -4.7216   -0.4965  -18.1963 C   0  0  0  0  0  0  0  0  0  0  0  0
   -4.4095   -0.0215  -19.5002 C   0  0  0  0  0  0  0  0  0  0  0  0
   -3.2169    0.6981  -19.7697 C   0  0  0  0  0  0  0  0  0  0  0  0
   -2.9824    1.2166  -21.0138 C   0  0  0  0  0  0  0  0  0  0  0  0
   -3.9316    1.0274  -22.0467 C   0  0  0  0  0  0  0  0  0  0  0  0
   -5.0667    0.2856  -21.8254 C   0  0  0  0  0  0  0  0  0  0  0  0
   -5.3501   -0.2324  -20.5324 C   0  0  0  0  0  0  0  0  0  0  0  0
   -5.7639    0.0894  -22.6391 H   0  0  0  0  0  0  0  0  0  0  0  0
   -3.7675    1.4634  -23.0281 H   0  0  0  0  0  0  0  0  0  0  0  0
   -2.0959    1.8151  -21.2019 H   0  0  0  0  0  0  0  0  0  0  0  0
   -2.5402    0.8840  -18.9391 H   0  0  0  0  0  0  0  0  0  0  0  0
   -3.9924   -0.3514  -17.3985 H   0  0  0  0  0  0  0  0  0  0  0  0
   -7.6599   -1.8114  -18.5846 H   0  0  0  0  0  0  0  0  0  0  0  0
   -6.9644   -2.6308  -21.9972 C   0  0  0  0  0  0  0  0  0  0  0  0
   -8.2657   -3.0046  -22.7295 C   0  0  2  0  0  0  0  0  0  0  0  0
   -7.9793   -3.6849  -24.0612 C   0  0  0  0  0  0  0  0  0  0  0  0
   -7.2490   -4.8658  -23.8085 O   0  0  0  0  0  0  0  0  0  0  0  0
   -7.0562   -5.6800  -24.9560 C   0  0  0  0  0  0  0  0  0  0  0  0
   -5.6889   -6.3344  -24.8521 C   0  0  0  0  0  0  0  0  0  0  0  0
   -5.4998   -6.9514  -25.7364 H   0  0  0  0  0  0  0  0  0  0  0  0
   -4.8986   -5.5834  -24.7782 H   0  0  0  0  0  0  0  0  0  0  0  0
   -5.6416   -6.9745  -23.9668 H   0  0  0  0  0  0  0  0  0  0  0  0
   -8.1636   -6.7184  -25.0473 C   0  0  0  0  0  0  0  0  0  0  0  0
   -8.1252   -7.3795  -24.1771 H   0  0  0  0  0  0  0  0  0  0  0  0
   -9.1510   -6.2503  -25.0779 H   0  0  0  0  0  0  0  0  0  0  0  0
   -8.0439   -7.3183  -25.9534 H   0  0  0  0  0  0  0  0  0  0  0  0
   -7.0764   -5.0427  -25.8537 H   0  0  0  0  0  0  0  0  0  0  0  0
   -8.9200   -3.8990  -24.5945 H   0  0  0  0  0  0  0  0  0  0  0  0
   -7.3769   -3.0216  -24.7066 H   0  0  0  0  0  0  0  0  0  0  0  0
   -8.7929   -3.7264  -22.1020 H   0  0  0  0  0  0  0  0  0  0  0  0
   -6.1566   -2.3844  -22.7025 H   0  0  0  0  0  0  0  0  0  0  0  0
   -6.5886   -3.4436  -21.3663 H   0  0  0  0  0  0  0  0  0  0  0  0
  -10.6240   -1.8702  -22.6815 C   0  0  0  0  0  0  0  0  0  0  0  0
  -11.1841   -2.8356  -21.8329 C   0  0  0  0  0  0  0  0  0  0  0  0
  -12.5570   -2.9128  -21.6675 C   0  0  0  0  0  0  0  0  0  0  0  0
  -13.2237   -4.0073  -20.4894 Cl  0  0  0  0  0  0  0  0  0  0  0  0
  -13.4279   -2.0954  -22.3875 C   0  0  0  0  0  0  0  0  0  0  0  0
  -12.8896   -1.1407  -23.2222 C   0  0  0  0  0  0  0  0  0  0  0  0
  -11.5088   -0.9921  -23.3288 C   0  0  0  0  0  0  0  0  0  0  0  0
  -11.0246    0.1958  -24.0961 C   0  0  0  0  0  0  0  0  0  0  0  0
  -11.7933    1.0362  -24.5444 O   0  0  0  0  0  0  0  0  0  0  0  0
  -13.5214   -0.4636  -23.7882 H   0  0  0  0  0  0  0  0  0  0  0  0
  -14.4995   -2.1953  -22.2607 H   0  0  0  0  0  0  0  0  0  0  0  0
  -10.5646   -3.5235  -21.2669 H   0  0  0  0  0  0  0  0  0  0  0  0
   -8.9892   -1.5602  -24.9662 H   0  0  0  0  0  0  0  0  0  0  0  0
   -7.7845   -0.5720  -24.1082 H   0  0  0  0  0  0  0  0  0  0  0  0
   -8.6681    1.2556  -25.8141 H   0  0  0  0  0  0  0  0  0  0  0  0
   -9.9359    2.1656  -24.9905 H   0  0  0  0  0  0  0  0  0  0  0  0
   -9.3318    2.5918  -22.4664 H   0  0  0  0  0  0  0  0  0  0  0  0
   -6.6867    3.8969  -22.4922 H   0  0  0  0  0  0  0  0  0  0  0  0
   -7.8677    3.9232  -21.1847 H   0  0  0  0  0  0  0  0  0  0  0  0
   -6.8190    2.4804  -21.4590 H   0  0  0  0  0  0  0  0  0  0  0  0
  1  2  1  0
  2  3  1  0
  3  4  2  0
  3  5  1  0
  5  6  1  0
  6  7  1  0
  8  7  1  6
  8  9  1  0
  9 10  2  0
  9 11  1  0
 11 12  1  0
 12 13  2  0
 13 14  1  0
 14 15  2  0
 15 16  1  0
 16 17  2  0
 17 18  1  0
 18 19  2  0
 19 20  1  0
 20 21  2  0
 20 22  1  0
 19 23  1  0
 18 24  1  0
 17 25  1  0
 15 26  1  0
 13 27  1  0
 11 28  1  0
 28 29  1  0
 29 30  1  0
 30 31  1  0
 31 32  1  0
 32 33  1  0
 33 34  1  0
 33 35  1  0
 33 36  1  0
 32 37  1  0
 37 38  1  0
 37 39  1  0
 37 40  1  0
 32 41  1  0
 30 42  1  0
 30 43  1  0
 29 44  1  1
 28 45  1  0
 28 46  1  0
  8 47  1  0
 47 48  2  0
 48 49  1  0
 49 50  1  0
 49 51  2  0
 51 52  1  0
 52 53  2  0
 53 54  1  0
 54 55  2  0
 52 56  1  0
 51 57  1  0
 48 58  1  0
  7 59  1  0
  7 60  1  0
  5 61  1  0
  5 62  1  0
  2 63  1  0
  1 64  1  0
  1 65  1  0
  1 66  1  0
 54  6  1  0
 29  8  1  0
 53 47  1  0
 21 12  1  0
 21 16  1  0
M  END
>  <cnnaffinities>  (93) 
[6.65348, 6.67186, 6.35178, 6.7374, 7.06194, 6.58227, 7.0121, 6.64104]

>  <score>  (93) 
6.65348

>  <index>  (93) 
96

>  <Smiles>  (93) 
C(N(C(=O)C(N1C([C@@]2(C(=O)N(c3c(nc(c4c(c(c(c(c34)[H])[H])[H])[H])[H])[H])C([C@@]2(C(OC(C([H])([H])[H])(C([H])([H])[H])[H])([H])[H])[H])([H])[H])c2c(c(Cl)c(c(c2C1=O)[H])[H])[H])([H])[H])([H])[H])[H])([H])([H])[H]

>  <h>  (93) 
<NA>

>  <Training>  (93) 
True

>  <Success>  (93) 
True

>  <enamine_searched>  (93) 
False

>  <enamine_id>  (93) 
nan

$$$$

     RDKit          3D

 40 43  0  0  0  0  0  0  0  0999 V2000
  -12.6774   -3.7156  -21.1355 C   0  0  0  0  0  0  0  0  0  0  0  0
  -11.5618   -2.8012  -21.6641 C   0  0  2  0  0  0  0  0  0  0  0  0
  -12.0196   -2.2538  -23.0027 C   0  0  0  0  0  0  0  0  0  0  0  0
  -11.1197   -1.3123  -23.5397 O   0  0  0  0  0  0  0  0  0  0  0  0
   -9.8524   -1.8682  -23.7656 C   0  0  0  0  0  0  0  0  0  0  0  0
   -9.1839   -2.3971  -22.4902 C   0  0  1  0  0  0  0  0  0  0  0  0
  -10.1519   -3.3880  -21.7915 C   0  0  0  0  0  0  0  0  0  0  0  0
  -10.1783   -4.3074  -22.3933 H   0  0  0  0  0  0  0  0  0  0  0  0
   -9.7276   -3.6417  -20.8123 H   0  0  0  0  0  0  0  0  0  0  0  0
   -7.9286   -3.0259  -22.8541 N   0  0  0  0  0  0  0  0  0  0  0  0
   -6.8643   -2.6331  -22.0965 C   0  0  0  0  0  0  0  0  0  0  0  0
   -5.7328   -3.0703  -22.1003 O   0  0  0  0  0  0  0  0  0  0  0  0
   -7.3281   -1.5855  -21.2890 N   0  0  0  0  0  0  0  0  0  0  0  0
   -6.5063   -1.0635  -20.2528 C   0  0  0  0  0  0  0  0  0  0  0  0
   -6.7606   -1.3483  -18.9347 C   0  0  0  0  0  0  0  0  0  0  0  0
   -5.8808   -1.1188  -17.9301 N   0  0  0  0  0  0  0  0  0  0  0  0
   -4.7388   -0.5544  -18.2365 C   0  0  0  0  0  0  0  0  0  0  0  0
   -4.4065   -0.1024  -19.5399 C   0  0  0  0  0  0  0  0  0  0  0  0
   -3.2218    0.6397  -19.7765 C   0  0  0  0  0  0  0  0  0  0  0  0
   -3.0064    1.2063  -21.0031 C   0  0  0  0  0  0  0  0  0  0  0  0
   -3.9378    1.0059  -22.0512 C   0  0  0  0  0  0  0  0  0  0  0  0
   -5.0516    0.2259  -21.8631 C   0  0  0  0  0  0  0  0  0  0  0  0
   -5.3271   -0.3297  -20.5830 C   0  0  0  0  0  0  0  0  0  0  0  0
   -5.7288    0.0182  -22.6847 H   0  0  0  0  0  0  0  0  0  0  0  0
   -3.7719    1.4809  -23.0157 H   0  0  0  0  0  0  0  0  0  0  0  0
   -2.1533    1.8621  -21.1595 H   0  0  0  0  0  0  0  0  0  0  0  0
   -2.5435    0.7949  -18.9428 H   0  0  0  0  0  0  0  0  0  0  0  0
   -4.0201   -0.3997  -17.4297 H   0  0  0  0  0  0  0  0  0  0  0  0
   -7.6990   -1.8162  -18.6481 H   0  0  0  0  0  0  0  0  0  0  0  0
   -8.6733   -1.2978  -21.5310 C   0  0  0  0  0  0  0  0  0  0  0  0
   -9.2801   -0.3694  -21.0605 O   0  0  0  0  0  0  0  0  0  0  0  0
   -7.9080   -3.9212  -23.3200 H   0  0  0  0  0  0  0  0  0  0  0  0
   -9.2310   -1.0983  -24.2258 H   0  0  0  0  0  0  0  0  0  0  0  0
   -9.9124   -2.7214  -24.4635 H   0  0  0  0  0  0  0  0  0  0  0  0
  -12.9733   -1.7225  -22.8784 H   0  0  0  0  0  0  0  0  0  0  0  0
  -12.1586   -3.1138  -23.6880 H   0  0  0  0  0  0  0  0  0  0  0  0
  -11.4285   -1.9603  -20.9919 H   0  0  0  0  0  0  0  0  0  0  0  0
  -12.4205   -4.2966  -20.2437 H   0  0  0  0  0  0  0  0  0  0  0  0
  -12.9862   -4.4256  -21.9122 H   0  0  0  0  0  0  0  0  0  0  0  0
  -13.5554   -3.0990  -20.8919 H   0  0  0  0  0  0  0  0  0  0  0  0
  1  2  1  0
  2  3  1  0
  3  4  1  0
  4  5  1  0
  5  6  1  0
  6  7  1  0
  7  8  1  0
  7  9  1  0
  6 10  1  6
 10 11  1  0
 11 12  2  0
 11 13  1  0
 13 14  1  0
 14 15  2  0
 15 16  1  0
 16 17  2  0
 17 18  1  0
 18 19  2  0
 19 20  1  0
 20 21  2  0
 21 22  1  0
 22 23  2  0
 22 24  1  0
 21 25  1  0
 20 26  1  0
 19 27  1  0
 17 28  1  0
 15 29  1  0
 13 30  1  0
 30 31  2  0
 10 32  1  0
  5 33  1  0
  5 34  1  0
  3 35  1  0
  3 36  1  0
  2 37  1  1
  1 38  1  0
  1 39  1  0
  1 40  1  0
  7  2  1  0
 23 14  1  0
 30  6  1  0
 23 18  1  0
M  END
>  <cnnaffinities>  (94) 
[5.43227]

>  <score>  (94) 
5.43227

>  <index>  (94) 
97

>  <Smiles>  (94) 
C([C@@]1(C(OC([C@@]2(C1([H])[H])N(C(=O)N(c1c(nc(c3c(c(c(c(c13)[H])[H])[H])[H])[H])[H])C2=O)[H])([H])[H])([H])[H])[H])([H])([H])[H]

>  <h>  (94) 
<NA>

>  <Training>  (94) 
True

>  <Success>  (94) 
True

>  <enamine_searched>  (94) 
False

>  <enamine_id>  (94) 
nan

$$$$
