
     RDKit          3D

 66 71  0  0  0  0  0  0  0  0999 V2000
   -6.8145    0.0957  -29.3774 C   0  0  0  0  0  0  0  0  0  0  0  0
   -7.1588    0.6277  -28.0765 N   0  0  0  0  0  0  0  0  0  0  0  0
   -6.6091    0.0565  -26.9746 C   0  0  0  0  0  0  0  0  0  0  0  0
   -5.8121   -0.8729  -27.0191 O   0  0  0  0  0  0  0  0  0  0  0  0
   -7.1004    0.6568  -25.6607 C   0  0  0  0  0  0  0  0  0  0  0  0
   -8.2069   -0.1080  -25.1326 N   0  0  0  0  0  0  0  0  0  0  0  0
   -7.9386   -1.3932  -24.5197 C   0  0  0  0  0  0  0  0  0  0  0  0
   -8.7740   -1.5714  -23.2277 C   0  0  2  0  0  0  0  0  0  0  0  0
   -8.2259   -0.6145  -22.1291 C   0  0  0  0  0  0  0  0  0  0  0  0
   -8.3961    0.5786  -22.0350 O   0  0  0  0  0  0  0  0  0  0  0  0
   -7.4578   -1.3624  -21.2561 N   0  0  0  0  0  0  0  0  0  0  0  0
   -6.6446   -0.8059  -20.2345 C   0  0  0  0  0  0  0  0  0  0  0  0
   -6.9309   -1.0786  -18.9172 C   0  0  0  0  0  0  0  0  0  0  0  0
   -6.2509   -0.5867  -17.8522 N   0  0  0  0  0  0  0  0  0  0  0  0
   -5.2249    0.1907  -18.1096 C   0  0  0  0  0  0  0  0  0  0  0  0
   -4.7790    0.5101  -19.4240 C   0  0  0  0  0  0  0  0  0  0  0  0
   -3.6399    1.3342  -19.6305 C   0  0  0  0  0  0  0  0  0  0  0  0
   -3.2041    1.6058  -20.8990 C   0  0  0  0  0  0  0  0  0  0  0  0
   -3.8773    1.0609  -22.0137 C   0  0  0  0  0  0  0  0  0  0  0  0
   -4.9872    0.2687  -21.8397 C   0  0  0  0  0  0  0  0  0  0  0  0
   -5.4843   -0.0120  -20.5309 C   0  0  0  0  0  0  0  0  0  0  0  0
   -5.4865   -0.1444  -22.7121 H   0  0  0  0  0  0  0  0  0  0  0  0
   -3.5127    1.2699  -23.0157 H   0  0  0  0  0  0  0  0  0  0  0  0
   -2.3380    2.2413  -21.0560 H   0  0  0  0  0  0  0  0  0  0  0  0
   -3.1349    1.7424  -18.7593 H   0  0  0  0  0  0  0  0  0  0  0  0
   -4.6735    0.5968  -17.2617 H   0  0  0  0  0  0  0  0  0  0  0  0
   -7.7812   -1.7173  -18.6833 H   0  0  0  0  0  0  0  0  0  0  0  0
   -7.4061   -2.7678  -21.5901 C   0  0  0  0  0  0  0  0  0  0  0  0
   -8.5584   -2.9584  -22.5741 C   0  0  2  0  0  0  0  0  0  0  0  0
   -8.3335   -4.1302  -23.5171 C   0  0  0  0  0  0  0  0  0  0  0  0
   -9.4537   -4.3522  -24.3886 N   0  0  0  0  0  0  0  0  0  0  0  0
   -9.4443   -5.2748  -25.3759 C   0  0  0  0  0  0  0  0  0  0  0  0
   -8.3722   -6.1656  -25.5778 C   0  0  0  0  0  0  0  0  0  0  0  0
   -8.4948   -7.0393  -26.6377 C   0  0  0  0  0  0  0  0  0  0  0  0
   -9.5548   -7.0737  -27.4513 N   0  0  0  0  0  0  0  0  0  0  0  0
  -10.5064   -6.2014  -27.1465 C   0  0  0  0  0  0  0  0  0  0  0  0
  -10.5247   -5.3079  -26.1645 N   0  0  0  0  0  0  0  0  0  0  0  0
  -11.3898   -6.2044  -27.7780 H   0  0  0  0  0  0  0  0  0  0  0  0
   -7.7038   -7.7504  -26.8608 H   0  0  0  0  0  0  0  0  0  0  0  0
   -7.4891   -6.1750  -24.9509 H   0  0  0  0  0  0  0  0  0  0  0  0
  -10.2544   -3.7364  -24.3963 H   0  0  0  0  0  0  0  0  0  0  0  0
   -7.4261   -3.9518  -24.1137 H   0  0  0  0  0  0  0  0  0  0  0  0
   -8.1609   -5.0404  -22.9335 H   0  0  0  0  0  0  0  0  0  0  0  0
   -9.4489   -3.1843  -21.9849 H   0  0  0  0  0  0  0  0  0  0  0  0
   -7.5341   -3.3544  -20.6853 H   0  0  0  0  0  0  0  0  0  0  0  0
   -6.4391   -3.0533  -22.0289 H   0  0  0  0  0  0  0  0  0  0  0  0
  -10.2190   -1.2938  -23.5864 C   0  0  0  0  0  0  0  0  0  0  0  0
  -11.2700   -1.7884  -22.8015 C   0  0  0  0  0  0  0  0  0  0  0  0
  -12.5663   -1.3759  -23.0479 C   0  0  0  0  0  0  0  0  0  0  0  0
  -13.8135   -1.8879  -21.9471 Cl  0  0  0  0  0  0  0  0  0  0  0  0
  -12.8962   -0.5493  -24.1236 C   0  0  0  0  0  0  0  0  0  0  0  0
  -11.8677   -0.1041  -24.9312 C   0  0  0  0  0  0  0  0  0  0  0  0
  -10.5439   -0.4315  -24.6466 C   0  0  0  0  0  0  0  0  0  0  0  0
   -9.4814    0.2702  -25.4317 C   0  0  0  0  0  0  0  0  0  0  0  0
   -9.7311    1.1463  -26.2555 O   0  0  0  0  0  0  0  0  0  0  0  0
  -12.0534    0.5343  -25.7861 H   0  0  0  0  0  0  0  0  0  0  0  0
  -13.9289   -0.2637  -24.2995 H   0  0  0  0  0  0  0  0  0  0  0  0
  -11.1030   -2.4763  -21.9766 H   0  0  0  0  0  0  0  0  0  0  0  0
   -8.1772   -2.2053  -25.2224 H   0  0  0  0  0  0  0  0  0  0  0  0
   -6.8666   -1.4582  -24.3093 H   0  0  0  0  0  0  0  0  0  0  0  0
   -7.4361    1.6905  -25.7959 H   0  0  0  0  0  0  0  0  0  0  0  0
   -6.2830    0.6224  -24.9332 H   0  0  0  0  0  0  0  0  0  0  0  0
   -7.9975    1.1861  -27.9654 H   0  0  0  0  0  0  0  0  0  0  0  0
   -5.7375    0.1999  -29.5400 H   0  0  0  0  0  0  0  0  0  0  0  0
   -7.3423    0.6509  -30.1553 H   0  0  0  0  0  0  0  0  0  0  0  0
   -7.0720   -0.9680  -29.4481 H   0  0  0  0  0  0  0  0  0  0  0  0
  1  2  1  0
  2  3  1  0
  3  4  2  0
  3  5  1  0
  5  6  1  0
  6  7  1  0
  8  7  1  6
  8  9  1  0
  9 10  2  0
  9 11  1  0
 11 12  1  0
 12 13  2  0
 13 14  1  0
 14 15  2  0
 15 16  1  0
 16 17  2  0
 17 18  1  0
 18 19  2  0
 19 20  1  0
 20 21  2  0
 20 22  1  0
 19 23  1  0
 18 24  1  0
 17 25  1  0
 15 26  1  0
 13 27  1  0
 11 28  1  0
 28 29  1  0
 29 30  1  0
 30 31  1  0
 31 32  1  0
 32 33  2  0
 33 34  1  0
 34 35  2  0
 35 36  1  0
 36 37  2  0
 36 38  1  0
 34 39  1  0
 33 40  1  0
 31 41  1  0
 30 42  1  0
 30 43  1  0
 29 44  1  1
 28 45  1  0
 28 46  1  0
  8 47  1  0
 47 48  2  0
 48 49  1  0
 49 50  1  0
 49 51  2  0
 51 52  1  0
 52 53  2  0
 53 54  1  0
 54 55  2  0
 52 56  1  0
 51 57  1  0
 48 58  1  0
  7 59  1  0
  7 60  1  0
  5 61  1  0
  5 62  1  0
  2 63  1  0
  1 64  1  0
  1 65  1  0
  1 66  1  0
 54  6  1  0
 29  8  1  0
 37 32  1  0
 53 47  1  0
 21 12  1  0
 21 16  1  0
M  END
>  <cnnaffinities>  (1) 
[6.88147, 6.51993, 6.81743]

>  <score>  (1) 
6.88147

>  <index>  (1) 
0

>  <Smiles>  (1) 
C(N(C(=O)C(N1C([C@@]2(C(=O)N(c3c(nc(c4c(c(c(c(c34)[H])[H])[H])[H])[H])[H])C([C@@]2(C(N(c2c(c(nc(n2)[H])[H])[H])[H])([H])[H])[H])([H])[H])c2c(c(Cl)c(c(c2C1=O)[H])[H])[H])([H])[H])([H])[H])[H])([H])([H])[H]

>  <h>  (1) 
<NA>

>  <Training>  (1) 
True

>  <Success>  (1) 
True

>  <enamine_searched>  (1) 
False

>  <enamine_id>  (1) 
nan

$$$$

     RDKit          3D

 68 73  0  0  0  0  0  0  0  0999 V2000
   -9.8587    0.8788  -29.1562 C   0  0  0  0  0  0  0  0  0  0  0  0
   -9.6325   -0.3687  -28.4479 N   0  0  0  0  0  0  0  0  0  0  0  0
   -8.7347   -0.3751  -27.4236 C   0  0  0  0  0  0  0  0  0  0  0  0
   -8.0321    0.5856  -27.1442 O   0  0  0  0  0  0  0  0  0  0  0  0
   -8.6397   -1.6954  -26.6555 C   0  0  0  0  0  0  0  0  0  0  0  0
   -9.3021   -1.6202  -25.3700 N   0  0  0  0  0  0  0  0  0  0  0  0
   -8.6084   -1.0599  -24.2171 C   0  0  0  0  0  0  0  0  0  0  0  0
   -8.9887   -1.7893  -22.9092 C   0  0  2  0  0  0  0  0  0  0  0  0
   -8.4920   -0.8935  -21.7456 C   0  0  0  0  0  0  0  0  0  0  0  0
   -8.9358    0.1787  -21.3874 O   0  0  0  0  0  0  0  0  0  0  0  0
   -7.3731   -1.4800  -21.1972 N   0  0  0  0  0  0  0  0  0  0  0  0
   -6.6142   -0.8383  -20.1850 C   0  0  0  0  0  0  0  0  0  0  0  0
   -6.9402   -1.0456  -18.8717 C   0  0  0  0  0  0  0  0  0  0  0  0
   -6.2533   -0.5424  -17.8146 N   0  0  0  0  0  0  0  0  0  0  0  0
   -5.2099    0.2043  -18.0827 C   0  0  0  0  0  0  0  0  0  0  0  0
   -4.7636    0.5113  -19.4006 C   0  0  0  0  0  0  0  0  0  0  0  0
   -3.6328    1.3378  -19.6283 C   0  0  0  0  0  0  0  0  0  0  0  0
   -3.2279    1.6183  -20.9037 C   0  0  0  0  0  0  0  0  0  0  0  0
   -3.9328    1.0869  -22.0063 C   0  0  0  0  0  0  0  0  0  0  0  0
   -5.0317    0.2856  -21.8115 C   0  0  0  0  0  0  0  0  0  0  0  0
   -5.4768   -0.0252  -20.4968 C   0  0  0  0  0  0  0  0  0  0  0  0
   -5.5727   -0.1081  -22.6663 H   0  0  0  0  0  0  0  0  0  0  0  0
   -3.6007    1.3177  -23.0139 H   0  0  0  0  0  0  0  0  0  0  0  0
   -2.3645    2.2548  -21.0764 H   0  0  0  0  0  0  0  0  0  0  0  0
   -3.1094    1.7427  -18.7659 H   0  0  0  0  0  0  0  0  0  0  0  0
   -4.6547    0.6105  -17.2362 H   0  0  0  0  0  0  0  0  0  0  0  0
   -7.8041   -1.6610  -18.6331 H   0  0  0  0  0  0  0  0  0  0  0  0
   -6.9870   -2.7335  -21.8081 C   0  0  0  0  0  0  0  0  0  0  0  0
   -8.2315   -3.1344  -22.6050 C   0  0  2  0  0  0  0  0  0  0  0  0
   -7.8843   -4.0090  -23.8031 C   0  0  0  0  0  0  0  0  0  0  0  0
   -9.0743   -4.5990  -24.3737 N   0  0  0  0  0  0  0  0  0  0  0  0
   -9.0271   -5.0770  -25.6745 C   0  0  0  0  0  0  0  0  0  0  0  0
  -10.1263   -5.4846  -26.4813 C   0  0  0  0  0  0  0  0  0  0  0  0
   -9.7164   -5.9390  -27.6620 N   0  0  0  0  0  0  0  0  0  0  0  0
   -8.3850   -5.8396  -27.6434 N   0  0  0  0  0  0  0  0  0  0  0  0
   -7.6083   -6.2730  -28.7891 C   0  0  0  0  0  0  0  0  0  0  0  0
   -7.4086   -5.4432  -29.4820 H   0  0  0  0  0  0  0  0  0  0  0  0
   -6.6552   -6.6942  -28.4467 H   0  0  0  0  0  0  0  0  0  0  0  0
   -8.1860   -7.0466  -29.3044 H   0  0  0  0  0  0  0  0  0  0  0  0
   -7.9214   -5.3158  -26.4732 C   0  0  0  0  0  0  0  0  0  0  0  0
   -6.8582   -5.1520  -26.3109 H   0  0  0  0  0  0  0  0  0  0  0  0
  -11.1921   -5.4953  -26.2637 H   0  0  0  0  0  0  0  0  0  0  0  0
   -9.9669   -4.1933  -24.1132 H   0  0  0  0  0  0  0  0  0  0  0  0
   -7.3474   -3.4063  -24.5540 H   0  0  0  0  0  0  0  0  0  0  0  0
   -7.1927   -4.8018  -23.4864 H   0  0  0  0  0  0  0  0  0  0  0  0
   -8.8880   -3.7169  -21.9405 H   0  0  0  0  0  0  0  0  0  0  0  0
   -6.7203   -3.4660  -21.0397 H   0  0  0  0  0  0  0  0  0  0  0  0
   -6.1061   -2.6175  -22.4602 H   0  0  0  0  0  0  0  0  0  0  0  0
  -10.4923   -1.9502  -22.9196 C   0  0  0  0  0  0  0  0  0  0  0  0
  -11.1208   -2.3402  -21.7399 C   0  0  0  0  0  0  0  0  0  0  0  0
  -12.4960   -2.4880  -21.7073 C   0  0  0  0  0  0  0  0  0  0  0  0
  -13.2503   -3.2319  -20.3342 Cl  0  0  0  0  0  0  0  0  0  0  0  0
  -13.3011   -2.0745  -22.7718 C   0  0  0  0  0  0  0  0  0  0  0  0
  -12.6779   -1.6235  -23.9263 C   0  0  0  0  0  0  0  0  0  0  0  0
  -11.2913   -1.7015  -24.0431 C   0  0  0  0  0  0  0  0  0  0  0  0
  -10.6649   -1.6853  -25.3954 C   0  0  0  0  0  0  0  0  0  0  0  0
  -11.2893   -1.7733  -26.4522 O   0  0  0  0  0  0  0  0  0  0  0  0
  -13.2207   -1.2293  -24.7829 H   0  0  0  0  0  0  0  0  0  0  0  0
  -14.3810   -2.1764  -22.7077 H   0  0  0  0  0  0  0  0  0  0  0  0
  -10.4984   -2.4537  -20.8663 H   0  0  0  0  0  0  0  0  0  0  0  0
   -7.5299   -1.1192  -24.3977 H   0  0  0  0  0  0  0  0  0  0  0  0
   -8.8713    0.0028  -24.0807 H   0  0  0  0  0  0  0  0  0  0  0  0
   -7.5874   -1.9026  -26.4640 H   0  0  0  0  0  0  0  0  0  0  0  0
   -9.0787   -2.5245  -27.2191 H   0  0  0  0  0  0  0  0  0  0  0  0
  -10.4043   -1.0169  -28.3522 H   0  0  0  0  0  0  0  0  0  0  0  0
   -8.9365    1.1802  -29.6665 H   0  0  0  0  0  0  0  0  0  0  0  0
  -10.6441    0.7233  -29.9023 H   0  0  0  0  0  0  0  0  0  0  0  0
  -10.1522    1.6847  -28.4679 H   0  0  0  0  0  0  0  0  0  0  0  0
  1  2  1  0
  2  3  1  0
  3  4  2  0
  3  5  1  0
  5  6  1  0
  6  7  1  0
  8  7  1  6
  8  9  1  0
  9 10  2  0
  9 11  1  0
 11 12  1  0
 12 13  2  0
 13 14  1  0
 14 15  2  0
 15 16  1  0
 16 17  2  0
 17 18  1  0
 18 19  2  0
 19 20  1  0
 20 21  2  0
 20 22  1  0
 19 23  1  0
 18 24  1  0
 17 25  1  0
 15 26  1  0
 13 27  1  0
 11 28  1  0
 28 29  1  0
 29 30  1  0
 30 31  1  0
 31 32  1  0
 32 33  1  0
 33 34  2  0
 34 35  1  0
 35 36  1  0
 36 37  1  0
 36 38  1  0
 36 39  1  0
 35 40  1  0
 40 41  1  0
 33 42  1  0
 31 43  1  0
 30 44  1  0
 30 45  1  0
 29 46  1  1
 28 47  1  0
 28 48  1  0
  8 49  1  0
 49 50  2  0
 50 51  1  0
 51 52  1  0
 51 53  2  0
 53 54  1  0
 54 55  2  0
 55 56  1  0
 56 57  2  0
 54 58  1  0
 53 59  1  0
 50 60  1  0
  7 61  1  0
  7 62  1  0
  5 63  1  0
  5 64  1  0
  2 65  1  0
  1 66  1  0
  1 67  1  0
  1 68  1  0
 56  6  1  0
 29  8  1  0
 40 32  2  0
 55 49  1  0
 21 12  1  0
 21 16  1  0
M  END
>  <cnnaffinities>  (2) 
[7.28888, 6.79978]

>  <score>  (2) 
7.28888

>  <index>  (2) 
1

>  <Smiles>  (2) 
C(N(C(=O)C(N1C([C@@]2(C(=O)N(c3c(nc(c4c(c(c(c(c34)[H])[H])[H])[H])[H])[H])C([C@@]2(C(N(c2c(nn(C([H])([H])[H])c2[H])[H])[H])([H])[H])[H])([H])[H])c2c(c(Cl)c(c(c2C1=O)[H])[H])[H])([H])[H])([H])[H])[H])([H])([H])[H]

>  <h>  (2) 
<NA>

>  <Training>  (2) 
True

>  <Success>  (2) 
True

>  <enamine_searched>  (2) 
False

>  <enamine_id>  (2) 
nan

$$$$

     RDKit          3D

 60 65  0  0  0  0  0  0  0  0999 V2000
   -5.1946   -1.4886  -30.4864 C   0  0  0  0  0  0  0  0  0  0  0  0
   -5.6897   -0.8845  -29.2068 C   0  0  0  0  0  0  0  0  0  0  0  0
   -5.1810   -1.2777  -27.9674 C   0  0  0  0  0  0  0  0  0  0  0  0
   -5.6396   -0.7956  -26.8167 N   0  0  0  0  0  0  0  0  0  0  0  0
   -6.5911    0.1378  -26.9021 C   0  0  0  0  0  0  0  0  0  0  0  0
   -7.1282    0.7090  -25.6221 C   0  0  0  0  0  0  0  0  0  0  0  0
   -8.2243   -0.0713  -25.0832 N   0  0  0  0  0  0  0  0  0  0  0  0
   -7.9415   -1.3597  -24.4815 C   0  0  0  0  0  0  0  0  0  0  0  0
   -8.7644   -1.5557  -23.1856 C   0  0  2  0  0  0  0  0  0  0  0  0
   -8.2288   -0.5878  -22.0906 C   0  0  0  0  0  0  0  0  0  0  0  0
   -8.4050    0.6015  -22.0009 O   0  0  0  0  0  0  0  0  0  0  0  0
   -7.4499   -1.3329  -21.2236 N   0  0  0  0  0  0  0  0  0  0  0  0
   -6.6380   -0.7771  -20.2077 C   0  0  0  0  0  0  0  0  0  0  0  0
   -6.9215   -1.0607  -18.8943 C   0  0  0  0  0  0  0  0  0  0  0  0
   -6.2366   -0.5732  -17.8314 N   0  0  0  0  0  0  0  0  0  0  0  0
   -5.2117    0.2020  -18.0947 C   0  0  0  0  0  0  0  0  0  0  0  0
   -4.7708    0.5262  -19.4092 C   0  0  0  0  0  0  0  0  0  0  0  0
   -3.6321    1.3447  -19.6235 C   0  0  0  0  0  0  0  0  0  0  0  0
   -3.1983    1.6108  -20.8922 C   0  0  0  0  0  0  0  0  0  0  0  0
   -3.8747    1.0635  -22.0052 C   0  0  0  0  0  0  0  0  0  0  0  0
   -4.9858    0.2782  -21.8265 C   0  0  0  0  0  0  0  0  0  0  0  0
   -5.4796    0.0073  -20.5149 C   0  0  0  0  0  0  0  0  0  0  0  0
   -5.4858   -0.1390  -22.6986 H   0  0  0  0  0  0  0  0  0  0  0  0
   -3.5068    1.2686  -23.0064 H   0  0  0  0  0  0  0  0  0  0  0  0
   -2.3312    2.2432  -21.0524 H   0  0  0  0  0  0  0  0  0  0  0  0
   -3.1238    1.7515  -18.7538 H   0  0  0  0  0  0  0  0  0  0  0  0
   -4.6568    0.6057  -17.2479 H   0  0  0  0  0  0  0  0  0  0  0  0
   -7.7695   -1.7055  -18.6654 H   0  0  0  0  0  0  0  0  0  0  0  0
   -7.3546   -2.7346  -21.5612 C   0  0  0  0  0  0  0  0  0  0  0  0
   -8.5083   -2.9446  -22.5430 C   0  0  2  0  0  0  0  0  0  0  0  0
   -8.2946   -4.0824  -23.5290 C   0  0  0  0  0  0  0  0  0  0  0  0
   -9.1180   -4.1307  -24.2509 H   0  0  0  0  0  0  0  0  0  0  0  0
   -8.2317   -5.0429  -23.0111 H   0  0  0  0  0  0  0  0  0  0  0  0
   -7.3632   -3.9360  -24.0882 H   0  0  0  0  0  0  0  0  0  0  0  0
   -9.3800   -3.1841  -21.9313 H   0  0  0  0  0  0  0  0  0  0  0  0
   -6.3790   -2.9869  -22.0048 H   0  0  0  0  0  0  0  0  0  0  0  0
   -7.4661   -3.3311  -20.6570 H   0  0  0  0  0  0  0  0  0  0  0  0
  -10.2136   -1.2915  -23.5438 C   0  0  0  0  0  0  0  0  0  0  0  0
  -11.2532   -1.8184  -22.7713 C   0  0  0  0  0  0  0  0  0  0  0  0
  -12.5518   -1.4442  -23.0390 C   0  0  0  0  0  0  0  0  0  0  0  0
  -13.5227   -1.8987  -22.2295 F   0  0  0  0  0  0  0  0  0  0  0  0
  -12.9006   -0.6063  -24.0918 C   0  0  0  0  0  0  0  0  0  0  0  0
  -11.8828   -0.1269  -24.8852 C   0  0  0  0  0  0  0  0  0  0  0  0
  -10.5528   -0.4239  -24.5922 C   0  0  0  0  0  0  0  0  0  0  0  0
   -9.5056    0.2994  -25.3733 C   0  0  0  0  0  0  0  0  0  0  0  0
   -9.7740    1.1775  -26.1826 O   0  0  0  0  0  0  0  0  0  0  0  0
  -12.0791    0.4792  -25.7595 H   0  0  0  0  0  0  0  0  0  0  0  0
  -13.9377   -0.3253  -24.2437 H   0  0  0  0  0  0  0  0  0  0  0  0
  -11.0809   -2.5129  -21.9559 H   0  0  0  0  0  0  0  0  0  0  0  0
   -6.8678   -1.4276  -24.2834 H   0  0  0  0  0  0  0  0  0  0  0  0
   -8.1811   -2.1643  -25.1908 H   0  0  0  0  0  0  0  0  0  0  0  0
   -7.4894    1.7320  -25.7596 H   0  0  0  0  0  0  0  0  0  0  0  0
   -6.3223    0.7139  -24.8808 H   0  0  0  0  0  0  0  0  0  0  0  0
   -7.0889    0.5412  -28.1330 C   0  0  0  0  0  0  0  0  0  0  0  0
   -6.6527    0.0323  -29.2871 N   0  0  0  0  0  0  0  0  0  0  0  0
   -7.8729    1.2903  -28.1765 H   0  0  0  0  0  0  0  0  0  0  0  0
   -4.3676   -1.9943  -27.9064 H   0  0  0  0  0  0  0  0  0  0  0  0
   -5.5015   -2.5381  -30.5518 H   0  0  0  0  0  0  0  0  0  0  0  0
   -4.1010   -1.4629  -30.5469 H   0  0  0  0  0  0  0  0  0  0  0  0
   -5.6206   -0.9415  -31.3294 H   0  0  0  0  0  0  0  0  0  0  0  0
  1  2  1  0
  2  3  2  0
  3  4  1  0
  4  5  2  0
  5  6  1  0
  6  7  1  0
  7  8  1  0
  9  8  1  6
  9 10  1  0
 10 11  2  0
 10 12  1  0
 12 13  1  0
 13 14  2  0
 14 15  1  0
 15 16  2  0
 16 17  1  0
 17 18  2  0
 18 19  1  0
 19 20  2  0
 20 21  1  0
 21 22  2  0
 21 23  1  0
 20 24  1  0
 19 25  1  0
 18 26  1  0
 16 27  1  0
 14 28  1  0
 12 29  1  0
 29 30  1  0
 30 31  1  0
 31 32  1  0
 31 33  1  0
 31 34  1  0
 30 35  1  1
 29 36  1  0
 29 37  1  0
  9 38  1  0
 38 39  2  0
 39 40  1  0
 40 41  1  0
 40 42  2  0
 42 43  1  0
 43 44  2  0
 44 45  1  0
 45 46  2  0
 43 47  1  0
 42 48  1  0
 39 49  1  0
  8 50  1  0
  8 51  1  0
  6 52  1  0
  6 53  1  0
  5 54  1  0
 54 55  2  0
 54 56  1  0
  3 57  1  0
  1 58  1  0
  1 59  1  0
  1 60  1  0
 55  2  1  0
 45  7  1  0
 30  9  1  0
 44 38  1  0
 22 13  1  0
 22 17  1  0
M  END
>  <cnnaffinities>  (3) 
[6.3984, 6.79936, 6.70054]

>  <score>  (3) 
6.3984

>  <index>  (3) 
2

>  <Smiles>  (3) 
C(c1c(nc(C(N2C([C@@]3(C(=O)N(c4c(nc(c5c(c(c(c(c45)[H])[H])[H])[H])[H])[H])C([C@@]3(C([H])([H])[H])[H])([H])[H])c3c(c(F)c(c(c3C2=O)[H])[H])[H])([H])[H])([H])[H])c(n1)[H])[H])([H])([H])[H]

>  <h>  (3) 
<NA>

>  <Training>  (3) 
True

>  <Success>  (3) 
True

>  <enamine_searched>  (3) 
False

>  <enamine_id>  (3) 
nan

$$$$

     RDKit          3D

 66 70  0  0  0  0  0  0  0  0999 V2000
   -6.9458    3.4135  -23.1345 C   0  0  0  0  0  0  0  0  0  0  0  0
   -7.6862    2.6385  -24.1164 N   0  0  0  0  0  0  0  0  0  0  0  0
   -7.0581    1.6299  -24.7770 C   0  0  0  0  0  0  0  0  0  0  0  0
   -5.8577    1.4326  -24.6832 O   0  0  0  0  0  0  0  0  0  0  0  0
   -7.9480    0.7651  -25.6759 C   0  0  0  0  0  0  0  0  0  0  0  0
   -8.8562   -0.0693  -24.9154 N   0  0  0  0  0  0  0  0  0  0  0  0
   -8.3900   -1.3408  -24.3861 C   0  0  0  0  0  0  0  0  0  0  0  0
   -9.0264   -1.6415  -22.9989 C   0  0  2  0  0  0  0  0  0  0  0  0
   -8.4037   -0.6541  -21.9794 C   0  0  0  0  0  0  0  0  0  0  0  0
   -8.6417    0.5270  -21.8737 O   0  0  0  0  0  0  0  0  0  0  0  0
   -7.4868   -1.3519  -21.2161 N   0  0  0  0  0  0  0  0  0  0  0  0
   -6.6735   -0.7708  -20.2103 C   0  0  0  0  0  0  0  0  0  0  0  0
   -6.9464   -1.0499  -18.8943 C   0  0  0  0  0  0  0  0  0  0  0  0
   -6.2484   -0.5703  -17.8382 N   0  0  0  0  0  0  0  0  0  0  0  0
   -5.2210    0.2009  -18.1024 C   0  0  0  0  0  0  0  0  0  0  0  0
   -4.7914    0.5291  -19.4183 C   0  0  0  0  0  0  0  0  0  0  0  0
   -3.6477    1.3422  -19.6382 C   0  0  0  0  0  0  0  0  0  0  0  0
   -3.2265    1.6178  -20.9093 C   0  0  0  0  0  0  0  0  0  0  0  0
   -3.9276    1.0908  -22.0174 C   0  0  0  0  0  0  0  0  0  0  0  0
   -5.0412    0.3054  -21.8316 C   0  0  0  0  0  0  0  0  0  0  0  0
   -5.5187    0.0178  -20.5213 C   0  0  0  0  0  0  0  0  0  0  0  0
   -5.5511   -0.0920  -22.7033 H   0  0  0  0  0  0  0  0  0  0  0  0
   -3.6025    1.3204  -23.0280 H   0  0  0  0  0  0  0  0  0  0  0  0
   -2.3500    2.2383  -21.0744 H   0  0  0  0  0  0  0  0  0  0  0  0
   -3.1248    1.7368  -18.7710 H   0  0  0  0  0  0  0  0  0  0  0  0
   -4.6615    0.6007  -17.2558 H   0  0  0  0  0  0  0  0  0  0  0  0
   -7.7856   -1.7010  -18.6527 H   0  0  0  0  0  0  0  0  0  0  0  0
   -7.3359   -2.7444  -21.5801 C   0  0  0  0  0  0  0  0  0  0  0  0
   -8.5742   -3.0211  -22.4433 C   0  0  2  0  0  0  0  0  0  0  0  0
   -8.3531   -4.0749  -23.5155 C   0  0  0  0  0  0  0  0  0  0  0  0
   -8.1216   -5.3247  -22.9099 O   0  0  0  0  0  0  0  0  0  0  0  0
   -7.6098   -6.2934  -23.8136 C   0  0  0  0  0  0  0  0  0  0  0  0
   -8.1452   -7.6511  -23.4030 C   0  0  0  0  0  0  0  0  0  0  0  0
   -9.2272   -7.7152  -23.4984 H   0  0  0  0  0  0  0  0  0  0  0  0
   -7.8669   -7.8479  -22.3633 H   0  0  0  0  0  0  0  0  0  0  0  0
   -7.7022   -8.4130  -24.0472 H   0  0  0  0  0  0  0  0  0  0  0  0
   -6.0862   -6.3191  -23.7864 C   0  0  0  0  0  0  0  0  0  0  0  0
   -5.7280   -7.0970  -24.4704 H   0  0  0  0  0  0  0  0  0  0  0  0
   -5.7464   -6.5666  -22.7758 H   0  0  0  0  0  0  0  0  0  0  0  0
   -5.6394   -5.3640  -24.0826 H   0  0  0  0  0  0  0  0  0  0  0  0
   -7.9507   -6.0494  -24.8336 H   0  0  0  0  0  0  0  0  0  0  0  0
   -7.4870   -3.7878  -24.1369 H   0  0  0  0  0  0  0  0  0  0  0  0
   -9.2370   -4.1271  -24.1767 H   0  0  0  0  0  0  0  0  0  0  0  0
   -9.3466   -3.4078  -21.7767 H   0  0  0  0  0  0  0  0  0  0  0  0
   -6.3919   -2.9299  -22.1164 H   0  0  0  0  0  0  0  0  0  0  0  0
   -7.3143   -3.3584  -20.6809 H   0  0  0  0  0  0  0  0  0  0  0  0
  -10.5334   -1.4846  -23.1446 C   0  0  0  0  0  0  0  0  0  0  0  0
  -11.4304   -2.1658  -22.3088 C   0  0  0  0  0  0  0  0  0  0  0  0
  -12.7959   -1.9806  -22.4305 C   0  0  0  0  0  0  0  0  0  0  0  0
  -13.8468   -2.7782  -21.2887 Cl  0  0  0  0  0  0  0  0  0  0  0  0
  -13.3345   -1.1977  -23.4518 C   0  0  0  0  0  0  0  0  0  0  0  0
  -12.4608   -0.5365  -24.2953 C   0  0  0  0  0  0  0  0  0  0  0  0
  -11.0789   -0.6251  -24.1082 C   0  0  0  0  0  0  0  0  0  0  0  0
  -10.1906    0.2218  -24.9699 C   0  0  0  0  0  0  0  0  0  0  0  0
  -10.6307    1.1249  -25.6722 O   0  0  0  0  0  0  0  0  0  0  0  0
  -12.8310    0.0975  -25.0949 H   0  0  0  0  0  0  0  0  0  0  0  0
  -14.4073   -1.1041  -23.5788 H   0  0  0  0  0  0  0  0  0  0  0  0
  -11.0823   -2.8494  -21.5459 H   0  0  0  0  0  0  0  0  0  0  0  0
   -7.3008   -1.2935  -24.2861 H   0  0  0  0  0  0  0  0  0  0  0  0
   -8.6371   -2.1435  -25.0967 H   0  0  0  0  0  0  0  0  0  0  0  0
   -7.3068    0.1472  -26.3097 H   0  0  0  0  0  0  0  0  0  0  0  0
   -8.5689    1.3929  -26.3210 H   0  0  0  0  0  0  0  0  0  0  0  0
   -8.6917    2.6103  -24.0377 H   0  0  0  0  0  0  0  0  0  0  0  0
   -6.5110    2.7572  -22.3670 H   0  0  0  0  0  0  0  0  0  0  0  0
   -7.6190    4.1315  -22.6612 H   0  0  0  0  0  0  0  0  0  0  0  0
   -6.1338    3.9625  -23.6227 H   0  0  0  0  0  0  0  0  0  0  0  0
  1  2  1  0
  2  3  1  0
  3  4  2  0
  3  5  1  0
  5  6  1  0
  6  7  1  0
  8  7  1  6
  8  9  1  0
  9 10  2  0
  9 11  1  0
 11 12  1  0
 12 13  2  0
 13 14  1  0
 14 15  2  0
 15 16  1  0
 16 17  2  0
 17 18  1  0
 18 19  2  0
 19 20  1  0
 20 21  2  0
 20 22  1  0
 19 23  1  0
 18 24  1  0
 17 25  1  0
 15 26  1  0
 13 27  1  0
 11 28  1  0
 28 29  1  0
 29 30  1  0
 30 31  1  0
 31 32  1  0
 32 33  1  0
 33 34  1  0
 33 35  1  0
 33 36  1  0
 32 37  1  0
 37 38  1  0
 37 39  1  0
 37 40  1  0
 32 41  1  0
 30 42  1  0
 30 43  1  0
 29 44  1  1
 28 45  1  0
 28 46  1  0
  8 47  1  0
 47 48  2  0
 48 49  1  0
 49 50  1  0
 49 51  2  0
 51 52  1  0
 52 53  2  0
 53 54  1  0
 54 55  2  0
 52 56  1  0
 51 57  1  0
 48 58  1  0
  7 59  1  0
  7 60  1  0
  5 61  1  0
  5 62  1  0
  2 63  1  0
  1 64  1  0
  1 65  1  0
  1 66  1  0
 54  6  1  0
 29  8  1  0
 53 47  1  0
 21 12  1  0
 21 16  1  0
M  END
>  <cnnaffinities>  (4) 
[7.02196, 7.03605, 6.63156]

>  <score>  (4) 
7.02196

>  <index>  (4) 
3

>  <Smiles>  (4) 
C(N(C(=O)C(N1C([C@@]2(C(=O)N(c3c(nc(c4c(c(c(c(c34)[H])[H])[H])[H])[H])[H])C([C@@]2(C(OC(C([H])([H])[H])(C([H])([H])[H])[H])([H])[H])[H])([H])[H])c2c(c(Cl)c(c(c2C1=O)[H])[H])[H])([H])[H])([H])[H])[H])([H])([H])[H]

>  <h>  (4) 
<NA>

>  <Training>  (4) 
True

>  <Success>  (4) 
True

>  <enamine_searched>  (4) 
False

>  <enamine_id>  (4) 
nan

$$$$

     RDKit          3D

 59 64  0  0  0  0  0  0  0  0999 V2000
   -8.0858   -3.8436  -23.8376 C   0  0  0  0  0  0  0  0  0  0  0  0
   -8.3924   -2.8674  -22.7092 C   0  0  1  0  0  0  0  0  0  0  0  0
   -7.2363   -2.6871  -21.7197 C   0  0  0  0  0  0  0  0  0  0  0  0
   -7.4587   -1.3603  -21.1923 N   0  0  0  0  0  0  0  0  0  0  0  0
   -6.6318   -0.7999  -20.1912 C   0  0  0  0  0  0  0  0  0  0  0  0
   -6.9124   -1.0670  -18.8762 C   0  0  0  0  0  0  0  0  0  0  0  0
   -6.2178   -0.5706  -17.8233 N   0  0  0  0  0  0  0  0  0  0  0  0
   -5.1968    0.2069  -18.0981 C   0  0  0  0  0  0  0  0  0  0  0  0
   -4.7741    0.5305  -19.4190 C   0  0  0  0  0  0  0  0  0  0  0  0
   -3.6404    1.3532  -19.6498 C   0  0  0  0  0  0  0  0  0  0  0  0
   -3.2259    1.6314  -20.9219 C   0  0  0  0  0  0  0  0  0  0  0  0
   -3.9244    1.0964  -22.0293 C   0  0  0  0  0  0  0  0  0  0  0  0
   -5.0310    0.3050  -21.8356 C   0  0  0  0  0  0  0  0  0  0  0  0
   -5.4953    0.0094  -20.5167 C   0  0  0  0  0  0  0  0  0  0  0  0
   -5.5374   -0.1037  -22.7082 H   0  0  0  0  0  0  0  0  0  0  0  0
   -3.5891    1.3062  -23.0421 H   0  0  0  0  0  0  0  0  0  0  0  0
   -2.3572    2.2630  -21.0880 H   0  0  0  0  0  0  0  0  0  0  0  0
   -3.1127    1.7495  -18.7868 H   0  0  0  0  0  0  0  0  0  0  0  0
   -4.6245    0.6074  -17.2599 H   0  0  0  0  0  0  0  0  0  0  0  0
   -7.7654   -1.7010  -18.6346 H   0  0  0  0  0  0  0  0  0  0  0  0
   -8.2756   -0.5783  -21.9807 C   0  0  0  0  0  0  0  0  0  0  0  0
   -8.5093    0.5864  -21.7648 O   0  0  0  0  0  0  0  0  0  0  0  0
   -8.7769   -1.4366  -23.1632 C   0  0  1  0  0  0  0  0  0  0  0  0
   -8.0241   -1.0236  -24.4512 C   0  0  0  0  0  0  0  0  0  0  0  0
   -8.4421    0.2789  -24.9314 N   0  0  0  0  0  0  0  0  0  0  0  0
   -7.4401    1.3296  -25.0137 C   0  0  0  0  0  0  0  0  0  0  0  0
   -6.3300    0.9512  -25.9454 C   0  0  0  0  0  0  0  0  0  0  0  0
   -5.0871    0.7113  -25.5827 N   0  0  0  0  0  0  0  0  0  0  0  0
   -4.4424    0.3548  -26.7386 C   0  0  0  0  0  0  0  0  0  0  0  0
   -5.3072    0.3675  -27.7963 C   0  0  0  0  0  0  0  0  0  0  0  0
   -6.5229    0.7442  -27.2782 N   0  0  0  0  0  0  0  0  0  0  0  0
   -7.7576    0.9099  -28.0161 C   0  0  0  0  0  0  0  0  0  0  0  0
   -8.4776    0.1277  -27.7631 H   0  0  0  0  0  0  0  0  0  0  0  0
   -8.1930    1.8885  -27.8023 H   0  0  0  0  0  0  0  0  0  0  0  0
   -7.5425    0.8570  -29.0851 H   0  0  0  0  0  0  0  0  0  0  0  0
   -5.2004    0.1555  -28.8489 H   0  0  0  0  0  0  0  0  0  0  0  0
   -3.3916    0.1149  -26.7533 H   0  0  0  0  0  0  0  0  0  0  0  0
   -7.9629    2.2380  -25.3341 H   0  0  0  0  0  0  0  0  0  0  0  0
   -7.0017    1.4923  -24.0176 H   0  0  0  0  0  0  0  0  0  0  0  0
   -9.7653    0.5780  -25.0820 C   0  0  0  0  0  0  0  0  0  0  0  0
  -10.1661    1.5613  -25.6961 O   0  0  0  0  0  0  0  0  0  0  0  0
  -10.7110   -0.3587  -24.3990 C   0  0  0  0  0  0  0  0  0  0  0  0
  -12.0725   -0.1828  -24.6519 C   0  0  0  0  0  0  0  0  0  0  0  0
  -13.0105   -0.7805  -23.8362 C   0  0  0  0  0  0  0  0  0  0  0  0
  -12.5460   -1.6198  -22.8252 C   0  0  0  0  0  0  0  0  0  0  0  0
  -13.4379   -2.1623  -21.9801 F   0  0  0  0  0  0  0  0  0  0  0  0
  -11.2115   -1.9144  -22.6393 C   0  0  0  0  0  0  0  0  0  0  0  0
  -10.2566   -1.2611  -23.4287 C   0  0  0  0  0  0  0  0  0  0  0  0
  -10.9362   -2.5741  -21.8188 H   0  0  0  0  0  0  0  0  0  0  0  0
  -14.0737   -0.5844  -23.9249 H   0  0  0  0  0  0  0  0  0  0  0  0
  -12.3602    0.4980  -25.4471 H   0  0  0  0  0  0  0  0  0  0  0  0
   -6.9426   -1.0098  -24.2833 H   0  0  0  0  0  0  0  0  0  0  0  0
   -8.2360   -1.7674  -25.2277 H   0  0  0  0  0  0  0  0  0  0  0  0
   -7.2523   -3.4176  -20.9074 H   0  0  0  0  0  0  0  0  0  0  0  0
   -6.2625   -2.7625  -22.2298 H   0  0  0  0  0  0  0  0  0  0  0  0
   -9.2364   -3.2585  -22.1383 H   0  0  0  0  0  0  0  0  0  0  0  0
   -7.9063   -4.8532  -23.4545 H   0  0  0  0  0  0  0  0  0  0  0  0
   -8.9116   -3.8900  -24.5588 H   0  0  0  0  0  0  0  0  0  0  0  0
   -7.1847   -3.5240  -24.3765 H   0  0  0  0  0  0  0  0  0  0  0  0
  1  2  1  0
  2  3  1  0
  3  4  1  0
  4  5  1  0
  5  6  2  0
  6  7  1  0
  7  8  2  0
  8  9  1  0
  9 10  2  0
 10 11  1  0
 11 12  2  0
 12 13  1  0
 13 14  2  0
 13 15  1  0
 12 16  1  0
 11 17  1  0
 10 18  1  0
  8 19  1  0
  6 20  1  0
  4 21  1  0
 21 22  2  0
 21 23  1  0
 23 24  1  6
 24 25  1  0
 25 26  1  0
 26 27  1  0
 27 28  2  0
 28 29  1  0
 29 30  2  0
 30 31  1  0
 31 32  1  0
 32 33  1  0
 32 34  1  0
 32 35  1  0
 30 36  1  0
 29 37  1  0
 26 38  1  0
 26 39  1  0
 25 40  1  0
 40 41  2  0
 40 42  1  0
 42 43  2  0
 43 44  1  0
 44 45  2  0
 45 46  1  0
 45 47  1  0
 47 48  2  0
 47 49  1  0
 44 50  1  0
 43 51  1  0
 24 52  1  0
 24 53  1  0
  3 54  1  0
  3 55  1  0
  2 56  1  1
  1 57  1  0
  1 58  1  0
  1 59  1  0
 23  2  1  0
 31 27  1  0
 48 42  1  0
 14  5  1  0
 48 23  1  0
 14  9  1  0
M  END
>  <cnnaffinities>  (5) 
[6.62002, 6.64584]

>  <score>  (5) 
6.62002

>  <index>  (5) 
4

>  <Smiles>  (5) 
C([C@]1(C(N(c2c(nc(c3c(c(c(c(c23)[H])[H])[H])[H])[H])[H])C(=O)[C@]21C(N(C(c1nc(c(n1C([H])([H])[H])[H])[H])([H])[H])C(=O)c1c(c(c(F)c(c21)[H])[H])[H])([H])[H])([H])[H])[H])([H])([H])[H]

>  <h>  (5) 
<NA>

>  <Training>  (5) 
True

>  <Success>  (5) 
True

>  <enamine_searched>  (5) 
False

>  <enamine_id>  (5) 
nan

$$$$

     RDKit          3D

 58 61  0  0  0  0  0  0  0  0999 V2000
   -5.1409   -3.2855  -22.2821 C   0  0  0  0  0  0  0  0  0  0  0  0
   -6.4500   -3.3998  -22.4644 C   0  0  0  0  0  0  0  0  0  0  0  0
   -7.4288   -2.9171  -21.4308 C   0  0  0  0  0  0  0  0  0  0  0  0
   -7.4438   -1.4597  -21.2822 N   0  0  0  0  0  0  0  0  0  0  0  0
   -8.3155   -0.6041  -21.9651 C   0  0  0  0  0  0  0  0  0  0  0  0
   -8.5792    0.4891  -21.5061 O   0  0  0  0  0  0  0  0  0  0  0  0
   -8.8416   -1.0673  -23.3333 C   0  0  2  0  0  0  0  0  0  0  0  0
   -8.4304   -0.0176  -24.3869 C   0  0  0  0  0  0  0  0  0  0  0  0
   -9.0660   -0.2662  -25.6704 N   0  0  0  0  0  0  0  0  0  0  0  0
   -8.2523   -0.3557  -26.8817 C   0  0  0  0  0  0  0  0  0  0  0  0
   -7.5761   -1.7326  -26.9956 C   0  0  0  0  0  0  0  0  0  0  0  0
   -6.4019   -1.8899  -26.7020 O   0  0  0  0  0  0  0  0  0  0  0  0
   -8.3726   -2.7599  -27.3893 N   0  0  0  0  0  0  0  0  0  0  0  0
   -7.9270   -4.1242  -27.1461 C   0  0  0  0  0  0  0  0  0  0  0  0
   -8.7124   -4.8116  -27.4646 H   0  0  0  0  0  0  0  0  0  0  0  0
   -7.6938   -4.2776  -26.0740 H   0  0  0  0  0  0  0  0  0  0  0  0
   -7.0237   -4.3228  -27.7284 H   0  0  0  0  0  0  0  0  0  0  0  0
   -9.3501   -2.5731  -27.5620 H   0  0  0  0  0  0  0  0  0  0  0  0
   -7.4480    0.3855  -26.8412 H   0  0  0  0  0  0  0  0  0  0  0  0
   -8.9109   -0.1597  -27.7345 H   0  0  0  0  0  0  0  0  0  0  0  0
  -10.3855   -0.6209  -25.7681 C   0  0  0  0  0  0  0  0  0  0  0  0
  -10.9311   -0.7339  -26.8622 O   0  0  0  0  0  0  0  0  0  0  0  0
  -11.0768   -0.9410  -24.4840 C   0  0  0  0  0  0  0  0  0  0  0  0
  -12.4698   -0.9709  -24.4641 C   0  0  0  0  0  0  0  0  0  0  0  0
  -13.1295   -1.5350  -23.3875 C   0  0  0  0  0  0  0  0  0  0  0  0
  -12.3728   -2.0796  -22.3438 C   0  0  0  0  0  0  0  0  0  0  0  0
  -13.2143   -2.8055  -21.0016 Cl  0  0  0  0  0  0  0  0  0  0  0  0
  -10.9820   -2.0193  -22.3364 C   0  0  0  0  0  0  0  0  0  0  0  0
  -10.3377   -1.3234  -23.3644 C   0  0  0  0  0  0  0  0  0  0  0  0
  -10.3914   -2.4652  -21.5352 H   0  0  0  0  0  0  0  0  0  0  0  0
  -14.2169   -1.5708  -23.3620 H   0  0  0  0  0  0  0  0  0  0  0  0
  -13.0215   -0.5801  -25.3176 H   0  0  0  0  0  0  0  0  0  0  0  0
   -7.3442   -0.0817  -24.5397 H   0  0  0  0  0  0  0  0  0  0  0  0
   -8.6900    0.9769  -24.0036 H   0  0  0  0  0  0  0  0  0  0  0  0
   -8.3795   -2.0168  -23.6059 H   0  0  0  0  0  0  0  0  0  0  0  0
   -6.6747   -0.8802  -20.2277 C   0  0  0  0  0  0  0  0  0  0  0  0
   -7.0140   -1.0878  -18.9122 C   0  0  0  0  0  0  0  0  0  0  0  0
   -6.3428   -0.5761  -17.8508 N   0  0  0  0  0  0  0  0  0  0  0  0
   -5.2953    0.1705  -18.1089 C   0  0  0  0  0  0  0  0  0  0  0  0
   -4.8333    0.4758  -19.4207 C   0  0  0  0  0  0  0  0  0  0  0  0
   -3.6972    1.3002  -19.6443 C   0  0  0  0  0  0  0  0  0  0  0  0
   -3.2711    1.5600  -20.9168 C   0  0  0  0  0  0  0  0  0  0  0  0
   -3.9533    1.0063  -22.0224 C   0  0  0  0  0  0  0  0  0  0  0  0
   -5.0548    0.2064  -21.8315 C   0  0  0  0  0  0  0  0  0  0  0  0
   -5.5347   -0.0668  -20.5215 C   0  0  0  0  0  0  0  0  0  0  0  0
   -5.5667   -0.2214  -22.6884 H   0  0  0  0  0  0  0  0  0  0  0  0
   -3.6036    1.2152  -23.0282 H   0  0  0  0  0  0  0  0  0  0  0  0
   -2.4062    2.1956  -21.0845 H   0  0  0  0  0  0  0  0  0  0  0  0
   -3.1850    1.7189  -18.7811 H   0  0  0  0  0  0  0  0  0  0  0  0
   -4.7521    0.5754  -17.2559 H   0  0  0  0  0  0  0  0  0  0  0  0
   -7.8872   -1.6901  -18.6643 H   0  0  0  0  0  0  0  0  0  0  0  0
   -8.4266   -3.2955  -21.6651 H   0  0  0  0  0  0  0  0  0  0  0  0
   -7.1121   -3.3078  -20.4588 H   0  0  0  0  0  0  0  0  0  0  0  0
   -6.9823   -4.0235  -23.7658 C   0  0  0  0  0  0  0  0  0  0  0  0
   -6.1152   -4.4290  -24.5677 O   0  0  0  0  0  0  0  0  0  0  0  0
   -8.2257   -4.0546  -23.9128 O   0  0  0  0  0  1  0  0  0  0  0  0
   -4.4255   -3.6428  -23.0154 H   0  0  0  0  0  0  0  0  0  0  0  0
   -4.7677   -2.7873  -21.3855 H   0  0  0  0  0  0  0  0  0  0  0  0
  1  2  2  0
  2  3  1  0
  3  4  1  0
  4  5  1  0
  5  6  2  0
  5  7  1  0
  7  8  1  0
  8  9  1  0
  9 10  1  0
 10 11  1  0
 11 12  2  0
 11 13  1  0
 13 14  1  0
 14 15  1  0
 14 16  1  0
 14 17  1  0
 13 18  1  0
 10 19  1  0
 10 20  1  0
  9 21  1  0
 21 22  2  0
 21 23  1  0
 23 24  2  0
 24 25  1  0
 25 26  2  0
 26 27  1  0
 26 28  1  0
 28 29  2  0
 28 30  1  0
 25 31  1  0
 24 32  1  0
  8 33  1  0
  8 34  1  0
  7 35  1  6
  4 36  1  0
 36 37  2  0
 37 38  1  0
 38 39  2  0
 39 40  1  0
 40 41  2  0
 41 42  1  0
 42 43  2  0
 43 44  1  0
 44 45  2  0
 44 46  1  0
 43 47  1  0
 42 48  1  0
 41 49  1  0
 39 50  1  0
 37 51  1  0
  3 52  1  0
  3 53  1  0
  2 54  1  0
 54 55  2  0
 54 56  1  0
  1 57  1  0
  1 58  1  0
 29  7  1  0
 45 36  1  0
 29 23  1  0
 45 40  1  0
M  CHG  1  56  -1
M  END
>  <cnnaffinities>  (6) 
[6.35861]

>  <score>  (6) 
6.35861

>  <index>  (6) 
5

>  <Smiles>  (6) 
C(=C(C(N(C(=O)[C@@]1(C(N(C(C(=O)N(C([H])([H])[H])[H])([H])[H])C(=O)c2c(c(c(Cl)c(c12)[H])[H])[H])([H])[H])[H])c1c(nc(c2c(c(c(c(c12)[H])[H])[H])[H])[H])[H])([H])[H])C(=O)[O-])([H])[H]

>  <h>  (6) 
<NA>

>  <Training>  (6) 
True

>  <Success>  (6) 
True

>  <enamine_searched>  (6) 
False

>  <enamine_id>  (6) 
nan

$$$$

     RDKit          3D

 43 45  0  0  0  0  0  0  0  0999 V2000
   -8.9370   -7.9589  -25.1514 C   0  0  0  0  0  0  0  0  0  0  0  0
   -9.2279   -6.4664  -25.3382 C   0  0  0  0  0  0  0  0  0  0  0  0
   -8.8230   -5.6120  -24.1265 C   0  0  0  0  0  0  0  0  0  0  0  0
   -7.3990   -5.8652  -23.6214 C   0  0  0  0  0  0  0  0  0  0  0  0
   -7.2056   -5.1317  -22.3057 C   0  0  0  0  0  0  0  0  0  0  0  0
   -7.5587   -3.7203  -22.3977 N   0  0  0  0  0  0  0  0  0  0  0  0
   -6.7485   -2.8501  -21.7081 C   0  0  0  0  0  0  0  0  0  0  0  0
   -5.5963   -3.1310  -21.4226 O   0  0  0  0  0  0  0  0  0  0  0  0
   -7.3809   -1.5264  -21.2657 C   0  0  0  0  0  0  0  0  0  0  0  0
   -6.5826   -0.8567  -20.1838 C   0  0  0  0  0  0  0  0  0  0  0  0
   -6.8987   -1.0660  -18.8688 C   0  0  0  0  0  0  0  0  0  0  0  0
   -6.2318   -0.5550  -17.8001 N   0  0  0  0  0  0  0  0  0  0  0  0
   -5.1966    0.2074  -18.0669 C   0  0  0  0  0  0  0  0  0  0  0  0
   -4.7449    0.5050  -19.3796 C   0  0  0  0  0  0  0  0  0  0  0  0
   -3.6239    1.3389  -19.6141 C   0  0  0  0  0  0  0  0  0  0  0  0
   -3.2152    1.6135  -20.8899 C   0  0  0  0  0  0  0  0  0  0  0  0
   -3.9083    1.0583  -21.9895 C   0  0  0  0  0  0  0  0  0  0  0  0
   -4.9906    0.2393  -21.7892 C   0  0  0  0  0  0  0  0  0  0  0  0
   -5.4457   -0.0499  -20.4768 C   0  0  0  0  0  0  0  0  0  0  0  0
   -5.5016   -0.1970  -22.6425 H   0  0  0  0  0  0  0  0  0  0  0  0
   -3.5819    1.2876  -22.9996 H   0  0  0  0  0  0  0  0  0  0  0  0
   -2.3600    2.2585  -21.0696 H   0  0  0  0  0  0  0  0  0  0  0  0
   -3.1064    1.7621  -18.7566 H   0  0  0  0  0  0  0  0  0  0  0  0
   -4.6501    0.6288  -17.2217 H   0  0  0  0  0  0  0  0  0  0  0  0
   -7.7557   -1.6890  -18.6091 H   0  0  0  0  0  0  0  0  0  0  0  0
   -7.5045   -0.8830  -22.1471 H   0  0  0  0  0  0  0  0  0  0  0  0
   -8.3850   -1.7566  -20.8819 H   0  0  0  0  0  0  0  0  0  0  0  0
   -8.9173   -3.4490  -22.8731 C   0  0  0  0  0  0  0  0  0  0  0  0
   -9.1407   -4.1080  -24.2421 C   0  0  0  0  0  0  0  0  0  0  0  0
   -8.5447   -3.5991  -25.0130 H   0  0  0  0  0  0  0  0  0  0  0  0
  -10.1947   -3.9656  -24.5200 H   0  0  0  0  0  0  0  0  0  0  0  0
   -9.6732   -3.8599  -22.1758 H   0  0  0  0  0  0  0  0  0  0  0  0
   -9.0840   -2.3680  -22.9163 H   0  0  0  0  0  0  0  0  0  0  0  0
   -7.8406   -5.6255  -21.5503 H   0  0  0  0  0  0  0  0  0  0  0  0
   -6.1804   -5.1746  -21.9417 H   0  0  0  0  0  0  0  0  0  0  0  0
   -6.6380   -5.6005  -24.3660 H   0  0  0  0  0  0  0  0  0  0  0  0
   -7.2668   -6.9319  -23.4082 H   0  0  0  0  0  0  0  0  0  0  0  0
   -9.4403   -5.9284  -23.2811 H   0  0  0  0  0  0  0  0  0  0  0  0
  -10.3077   -6.3426  -25.4731 H   0  0  0  0  0  0  0  0  0  0  0  0
   -8.7401   -6.0942  -26.2554 H   0  0  0  0  0  0  0  0  0  0  0  0
   -9.3795   -8.3570  -24.2262 H   0  0  0  0  0  0  0  0  0  0  0  0
   -7.8588   -8.1449  -25.0864 H   0  0  0  0  0  0  0  0  0  0  0  0
   -9.3350   -8.5447  -25.9881 H   0  0  0  0  0  0  0  0  0  0  0  0
  1  2  1  0
  2  3  1  0
  3  4  1  0
  4  5  1  0
  5  6  1  0
  6  7  1  0
  7  8  2  0
  7  9  1  0
  9 10  1  0
 10 11  2  0
 11 12  1  0
 12 13  2  0
 13 14  1  0
 14 15  2  0
 15 16  1  0
 16 17  2  0
 17 18  1  0
 18 19  2  0
 18 20  1  0
 17 21  1  0
 16 22  1  0
 15 23  1  0
 13 24  1  0
 11 25  1  0
  9 26  1  0
  9 27  1  0
  6 28  1  0
 28 29  1  0
 29 30  1  0
 29 31  1  0
 28 32  1  0
 28 33  1  0
  5 34  1  0
  5 35  1  0
  4 36  1  0
  4 37  1  0
  3 38  1  0
  2 39  1  0
  2 40  1  0
  1 41  1  0
  1 42  1  0
  1 43  1  0
 29  3  1  0
 19 10  1  0
 19 14  1  0
M  END
>  <cnnaffinities>  (7) 
[4.75315, 4.74697, 5.14599, 5.05249, 5.05248]

>  <score>  (7) 
4.75315

>  <index>  (7) 
6

>  <Smiles>  (7) 
C(C(C1(C(C(N(C(=O)C(c2c(nc(c3c(c(c(c(c23)[H])[H])[H])[H])[H])[H])([H])[H])C(C1([H])[H])([H])[H])([H])[H])([H])[H])[H])([H])[H])([H])([H])[H]

>  <h>  (7) 
<NA>

>  <Training>  (7) 
True

>  <Success>  (7) 
True

>  <enamine_searched>  (7) 
False

>  <enamine_id>  (7) 
nan

$$$$

     RDKit          3D

 44 47  0  0  0  0  0  0  0  0999 V2000
  -10.0906   -5.9844  -27.5640 C   0  0  0  0  0  0  0  0  0  0  0  0
   -8.9720   -5.2952  -26.7815 C   0  0  0  0  0  0  0  0  0  0  0  0
   -9.2606   -5.5293  -25.0283 S   0  0  0  0  0  0  0  0  0  0  0  0
   -9.0655   -6.9322  -24.7065 O   0  0  0  0  0  0  0  0  0  0  0  0
  -10.5240   -4.8642  -24.7242 O   0  0  0  0  0  0  0  0  0  0  0  0
   -8.0055   -4.6930  -24.2656 N   0  0  0  0  0  0  0  0  0  0  0  0
   -8.0712   -4.6907  -22.7777 C   0  0  0  0  0  0  0  0  0  0  0  0
   -8.0300   -3.1478  -22.7707 C   0  0  0  0  0  0  0  0  0  0  0  0
   -7.9831   -3.2143  -24.3178 C   0  0  0  0  0  0  0  0  0  0  0  0
   -7.0532   -2.8392  -24.7506 H   0  0  0  0  0  0  0  0  0  0  0  0
   -8.8435   -2.7639  -24.8176 H   0  0  0  0  0  0  0  0  0  0  0  0
   -6.7961   -2.5901  -22.0894 C   0  0  0  0  0  0  0  0  0  0  0  0
   -5.6588   -2.9494  -22.2616 O   0  0  0  0  0  0  0  0  0  0  0  0
   -7.2448   -1.6035  -21.2158 N   0  0  0  0  0  0  0  0  0  0  0  0
   -6.5158   -0.9330  -20.1984 C   0  0  0  0  0  0  0  0  0  0  0  0
   -6.8978   -1.0911  -18.8860 C   0  0  0  0  0  0  0  0  0  0  0  0
   -6.2407   -0.5519  -17.8316 N   0  0  0  0  0  0  0  0  0  0  0  0
   -5.2026    0.2021  -18.1022 C   0  0  0  0  0  0  0  0  0  0  0  0
   -4.7520    0.5056  -19.4176 C   0  0  0  0  0  0  0  0  0  0  0  0
   -3.6349    1.3515  -19.6363 C   0  0  0  0  0  0  0  0  0  0  0  0
   -3.2425    1.6584  -20.9098 C   0  0  0  0  0  0  0  0  0  0  0  0
   -3.9558    1.1485  -22.0189 C   0  0  0  0  0  0  0  0  0  0  0  0
   -5.0395    0.3231  -21.8347 C   0  0  0  0  0  0  0  0  0  0  0  0
   -5.4404   -0.0467  -20.5170 C   0  0  0  0  0  0  0  0  0  0  0  0
   -5.5856   -0.0536  -22.6957 H   0  0  0  0  0  0  0  0  0  0  0  0
   -3.6372    1.4035  -23.0266 H   0  0  0  0  0  0  0  0  0  0  0  0
   -2.3787    2.2970  -21.0784 H   0  0  0  0  0  0  0  0  0  0  0  0
   -3.1123    1.7399  -18.7669 H   0  0  0  0  0  0  0  0  0  0  0  0
   -4.6497    0.6138  -17.2593 H   0  0  0  0  0  0  0  0  0  0  0  0
   -7.7727   -1.6905  -18.6375 H   0  0  0  0  0  0  0  0  0  0  0  0
   -8.6156   -1.3753  -21.3779 C   0  0  0  0  0  0  0  0  0  0  0  0
   -9.1849   -0.4215  -20.9047 O   0  0  0  0  0  0  0  0  0  0  0  0
   -9.0966   -2.3986  -22.1551 N   0  0  0  0  0  0  0  0  0  0  0  0
  -10.4925   -2.6436  -22.4506 C   0  0  0  0  0  0  0  0  0  0  0  0
  -10.7498   -3.6841  -22.2346 H   0  0  0  0  0  0  0  0  0  0  0  0
  -10.7111   -2.4579  -23.5062 H   0  0  0  0  0  0  0  0  0  0  0  0
  -11.1078   -1.9930  -21.8318 H   0  0  0  0  0  0  0  0  0  0  0  0
   -7.1811   -5.1530  -22.3498 H   0  0  0  0  0  0  0  0  0  0  0  0
   -8.9688   -5.1492  -22.3611 H   0  0  0  0  0  0  0  0  0  0  0  0
   -8.9647   -4.2123  -26.9551 H   0  0  0  0  0  0  0  0  0  0  0  0
   -7.9833   -5.7078  -27.0059 H   0  0  0  0  0  0  0  0  0  0  0  0
   -9.9526   -5.8520  -28.6409 H   0  0  0  0  0  0  0  0  0  0  0  0
  -11.0666   -5.5731  -27.2908 H   0  0  0  0  0  0  0  0  0  0  0  0
  -10.1082   -7.0573  -27.3502 H   0  0  0  0  0  0  0  0  0  0  0  0
  1  2  1  0
  2  3  1  0
  3  4  2  0
  3  5  2  0
  3  6  1  0
  6  7  1  0
  7  8  1  0
  8  9  1  0
  9 10  1  0
  9 11  1  0
  8 12  1  0
 12 13  2  0
 12 14  1  0
 14 15  1  0
 15 16  2  0
 16 17  1  0
 17 18  2  0
 18 19  1  0
 19 20  2  0
 20 21  1  0
 21 22  2  0
 22 23  1  0
 23 24  2  0
 23 25  1  0
 22 26  1  0
 21 27  1  0
 20 28  1  0
 18 29  1  0
 16 30  1  0
 14 31  1  0
 31 32  2  0
 31 33  1  0
 33 34  1  0
 34 35  1  0
 34 36  1  0
 34 37  1  0
  7 38  1  0
  7 39  1  0
  2 40  1  0
  2 41  1  0
  1 42  1  0
  1 43  1  0
  1 44  1  0
  9  6  1  0
 24 15  1  0
 33  8  1  0
 24 19  1  0
M  END
>  <cnnaffinities>  (8) 
[5.53024, 5.52781, 5.52966, 5.36387, 5.34077]

>  <score>  (8) 
5.53024

>  <index>  (8) 
7

>  <Smiles>  (8) 
C(C(S(=O)(=O)N1C(C2(C1([H])[H])C(=O)N(c1c(nc(c3c(c(c(c(c13)[H])[H])[H])[H])[H])[H])C(=O)N2C([H])([H])[H])([H])[H])([H])[H])([H])([H])[H]

>  <h>  (8) 
<NA>

>  <Training>  (8) 
True

>  <Success>  (8) 
True

>  <enamine_searched>  (8) 
False

>  <enamine_id>  (8) 
nan

$$$$

     RDKit          3D

 60 64  0  0  0  0  0  0  0  0999 V2000
   -8.4375    4.4878  -23.6602 C   0  0  0  0  0  0  0  0  0  0  0  0
   -8.4533    3.3896  -24.6078 N   0  0  0  0  0  0  0  0  0  0  0  0
   -7.5719    2.3633  -24.4339 C   0  0  0  0  0  0  0  0  0  0  0  0
   -6.6833    2.3737  -23.5952 O   0  0  0  0  0  0  0  0  0  0  0  0
   -7.7743    1.2050  -25.4143 C   0  0  0  0  0  0  0  0  0  0  0  0
   -8.6538    0.1935  -24.8644 N   0  0  0  0  0  0  0  0  0  0  0  0
   -8.1301   -1.0682  -24.3887 C   0  0  0  0  0  0  0  0  0  0  0  0
   -8.8264   -1.5321  -23.0838 C   0  0  2  0  0  0  0  0  0  0  0  0
   -8.3559   -0.6716  -21.8813 C   0  0  0  0  0  0  0  0  0  0  0  0
   -8.7041    0.4417  -21.5655 O   0  0  0  0  0  0  0  0  0  0  0  0
   -7.4098   -1.4086  -21.1954 N   0  0  0  0  0  0  0  0  0  0  0  0
   -6.6104   -0.8348  -20.1797 C   0  0  0  0  0  0  0  0  0  0  0  0
   -6.9154   -1.0829  -18.8680 C   0  0  0  0  0  0  0  0  0  0  0  0
   -6.2368   -0.5776  -17.8083 N   0  0  0  0  0  0  0  0  0  0  0  0
   -5.2115    0.1941  -18.0803 C   0  0  0  0  0  0  0  0  0  0  0  0
   -4.7679    0.5065  -19.3965 C   0  0  0  0  0  0  0  0  0  0  0  0
   -3.6359    1.3318  -19.6222 C   0  0  0  0  0  0  0  0  0  0  0  0
   -3.2207    1.6094  -20.8912 C   0  0  0  0  0  0  0  0  0  0  0  0
   -3.9192    1.0824  -22.0004 C   0  0  0  0  0  0  0  0  0  0  0  0
   -5.0226    0.2875  -21.8115 C   0  0  0  0  0  0  0  0  0  0  0  0
   -5.4768   -0.0223  -20.4990 C   0  0  0  0  0  0  0  0  0  0  0  0
   -5.5622   -0.0758  -22.6828 H   0  0  0  0  0  0  0  0  0  0  0  0
   -3.5864    1.3136  -23.0065 H   0  0  0  0  0  0  0  0  0  0  0  0
   -2.3514    2.2361  -21.0559 H   0  0  0  0  0  0  0  0  0  0  0  0
   -3.1227    1.7379  -18.7541 H   0  0  0  0  0  0  0  0  0  0  0  0
   -4.6564    0.6086  -17.2384 H   0  0  0  0  0  0  0  0  0  0  0  0
   -7.7704   -1.7148  -18.6368 H   0  0  0  0  0  0  0  0  0  0  0  0
   -7.1642   -2.7336  -21.7203 C   0  0  0  0  0  0  0  0  0  0  0  0
   -8.3477   -2.9434  -22.6670 C   0  0  2  0  0  0  0  0  0  0  0  0
   -8.0455   -3.8850  -23.8123 C   0  0  0  0  0  0  0  0  0  0  0  0
   -7.7996   -5.1531  -23.2685 O   0  0  0  0  0  0  0  0  0  0  0  0
   -7.4601   -6.1027  -24.2410 C   0  0  0  0  0  0  0  0  0  0  0  0
   -6.5393   -5.8282  -24.7763 H   0  0  0  0  0  0  0  0  0  0  0  0
   -7.2974   -7.0511  -23.7263 H   0  0  0  0  0  0  0  0  0  0  0  0
   -8.2600   -6.2353  -24.9843 H   0  0  0  0  0  0  0  0  0  0  0  0
   -8.8938   -3.9079  -24.5156 H   0  0  0  0  0  0  0  0  0  0  0  0
   -7.1694   -3.5241  -24.3770 H   0  0  0  0  0  0  0  0  0  0  0  0
   -9.1452   -3.4108  -22.0904 H   0  0  0  0  0  0  0  0  0  0  0  0
   -6.1966   -2.8060  -22.2401 H   0  0  0  0  0  0  0  0  0  0  0  0
   -7.1531   -3.4638  -20.9109 H   0  0  0  0  0  0  0  0  0  0  0  0
  -10.3176   -1.4337  -23.3070 C   0  0  0  0  0  0  0  0  0  0  0  0
  -11.2005   -2.1048  -22.4602 C   0  0  0  0  0  0  0  0  0  0  0  0
  -12.5584   -1.8920  -22.5821 C   0  0  0  0  0  0  0  0  0  0  0  0
  -13.6010   -2.6579  -21.4324 Cl  0  0  0  0  0  0  0  0  0  0  0  0
  -13.1107   -1.0803  -23.5731 C   0  0  0  0  0  0  0  0  0  0  0  0
  -12.2400   -0.4370  -24.4259 C   0  0  0  0  0  0  0  0  0  0  0  0
  -10.8629   -0.5638  -24.2559 C   0  0  0  0  0  0  0  0  0  0  0  0
   -9.9907    0.3924  -24.9982 C   0  0  0  0  0  0  0  0  0  0  0  0
  -10.4406    1.3375  -25.6431 O   0  0  0  0  0  0  0  0  0  0  0  0
  -12.5943    0.2343  -25.1979 H   0  0  0  0  0  0  0  0  0  0  0  0
  -14.1847   -0.9274  -23.6314 H   0  0  0  0  0  0  0  0  0  0  0  0
  -10.8391   -2.7651  -21.6790 H   0  0  0  0  0  0  0  0  0  0  0  0
   -7.0526   -0.9535  -24.2345 H   0  0  0  0  0  0  0  0  0  0  0  0
   -8.2846   -1.8368  -25.1562 H   0  0  0  0  0  0  0  0  0  0  0  0
   -8.2145    1.5723  -26.3482 H   0  0  0  0  0  0  0  0  0  0  0  0
   -6.8080    0.7385  -25.6078 H   0  0  0  0  0  0  0  0  0  0  0  0
   -9.2965    3.2068  -25.1368 H   0  0  0  0  0  0  0  0  0  0  0  0
   -9.1639    5.2419  -23.9702 H   0  0  0  0  0  0  0  0  0  0  0  0
   -7.4439    4.9483  -23.6438 H   0  0  0  0  0  0  0  0  0  0  0  0
   -8.6898    4.1398  -22.6496 H   0  0  0  0  0  0  0  0  0  0  0  0
  1  2  1  0
  2  3  1  0
  3  4  2  0
  3  5  1  0
  5  6  1  0
  6  7  1  0
  8  7  1  6
  8  9  1  0
  9 10  2  0
  9 11  1  0
 11 12  1  0
 12 13  2  0
 13 14  1  0
 14 15  2  0
 15 16  1  0
 16 17  2  0
 17 18  1  0
 18 19  2  0
 19 20  1  0
 20 21  2  0
 20 22  1  0
 19 23  1  0
 18 24  1  0
 17 25  1  0
 15 26  1  0
 13 27  1  0
 11 28  1  0
 28 29  1  0
 29 30  1  0
 30 31  1  0
 31 32  1  0
 32 33  1  0
 32 34  1  0
 32 35  1  0
 30 36  1  0
 30 37  1  0
 29 38  1  1
 28 39  1  0
 28 40  1  0
  8 41  1  0
 41 42  2  0
 42 43  1  0
 43 44  1  0
 43 45  2  0
 45 46  1  0
 46 47  2  0
 47 48  1  0
 48 49  2  0
 46 50  1  0
 45 51  1  0
 42 52  1  0
  7 53  1  0
  7 54  1  0
  5 55  1  0
  5 56  1  0
  2 57  1  0
  1 58  1  0
  1 59  1  0
  1 60  1  0
 48  6  1  0
 29  8  1  0
 47 41  1  0
 21 12  1  0
 21 16  1  0
M  END
>  <cnnaffinities>  (9) 
[6.93899, 6.66266]

>  <score>  (9) 
6.93899

>  <index>  (9) 
8

>  <Smiles>  (9) 
C(N(C(=O)C(N1C([C@@]2(C(=O)N(c3c(nc(c4c(c(c(c(c34)[H])[H])[H])[H])[H])[H])C([C@@]2(C(OC([H])([H])[H])([H])[H])[H])([H])[H])c2c(c(Cl)c(c(c2C1=O)[H])[H])[H])([H])[H])([H])[H])[H])([H])([H])[H]

>  <h>  (9) 
<NA>

>  <Training>  (9) 
True

>  <Success>  (9) 
True

>  <enamine_searched>  (9) 
False

>  <enamine_id>  (9) 
nan

$$$$

     RDKit          3D

 41 43  0  0  0  0  0  0  0  0999 V2000
   -6.3937    1.4646  -26.8791 C   0  0  0  0  0  0  0  0  0  0  0  0
   -7.2185    0.6130  -25.9155 C   0  0  1  0  0  0  0  0  0  0  0  0
   -6.4244   -0.5940  -25.4572 C   0  0  0  0  0  0  0  0  0  0  0  0
   -6.9016   -1.5687  -24.6880 C   0  0  0  0  0  0  0  0  0  0  0  0
   -8.3045   -1.5601  -24.1258 C   0  0  0  0  0  0  0  0  0  0  0  0
   -8.6167   -0.4067  -23.2912 N   0  0  0  0  0  0  0  0  0  0  0  0
   -8.3419   -0.3485  -21.9368 C   0  0  0  0  0  0  0  0  0  0  0  0
   -8.8154    0.5219  -21.2301 O   0  0  0  0  0  0  0  0  0  0  0  0
   -7.4273   -1.4137  -21.2838 C   0  0  0  0  0  0  0  0  0  0  0  0
   -6.5771   -0.8265  -20.1760 C   0  0  0  0  0  0  0  0  0  0  0  0
   -6.8781   -1.0388  -18.8557 C   0  0  0  0  0  0  0  0  0  0  0  0
   -6.1909   -0.5370  -17.7915 N   0  0  0  0  0  0  0  0  0  0  0  0
   -5.1574    0.2232  -18.0615 C   0  0  0  0  0  0  0  0  0  0  0  0
   -4.7229    0.5367  -19.3783 C   0  0  0  0  0  0  0  0  0  0  0  0
   -3.5996    1.3690  -19.6213 C   0  0  0  0  0  0  0  0  0  0  0  0
   -3.2110    1.6602  -20.9002 C   0  0  0  0  0  0  0  0  0  0  0  0
   -3.9321    1.1264  -21.9932 C   0  0  0  0  0  0  0  0  0  0  0  0
   -5.0218    0.3177  -21.7871 C   0  0  0  0  0  0  0  0  0  0  0  0
   -5.4504   -0.0007  -20.4709 C   0  0  0  0  0  0  0  0  0  0  0  0
   -5.5552   -0.0819  -22.6478 H   0  0  0  0  0  0  0  0  0  0  0  0
   -3.6176    1.3610  -23.0062 H   0  0  0  0  0  0  0  0  0  0  0  0
   -2.3550    2.3039  -21.0890 H   0  0  0  0  0  0  0  0  0  0  0  0
   -3.0590    1.7793  -18.7708 H   0  0  0  0  0  0  0  0  0  0  0  0
   -4.6006    0.6301  -17.2144 H   0  0  0  0  0  0  0  0  0  0  0  0
   -7.7313   -1.6609  -18.5846 H   0  0  0  0  0  0  0  0  0  0  0  0
   -6.7955   -1.9301  -22.0162 H   0  0  0  0  0  0  0  0  0  0  0  0
   -8.0911   -2.1710  -20.8462 H   0  0  0  0  0  0  0  0  0  0  0  0
   -8.9276    0.8415  -23.9904 C   0  0  0  0  0  0  0  0  0  0  0  0
   -7.7456    1.4635  -24.7436 C   0  0  0  0  0  0  0  0  0  0  0  0
   -6.9304    1.6436  -24.0338 H   0  0  0  0  0  0  0  0  0  0  0  0
   -8.0464    2.4521  -25.1225 H   0  0  0  0  0  0  0  0  0  0  0  0
   -9.7214    0.6318  -24.7160 H   0  0  0  0  0  0  0  0  0  0  0  0
   -9.3295    1.5428  -23.2563 H   0  0  0  0  0  0  0  0  0  0  0  0
   -9.0236   -1.5568  -24.9540 H   0  0  0  0  0  0  0  0  0  0  0  0
   -8.5066   -2.4707  -23.5593 H   0  0  0  0  0  0  0  0  0  0  0  0
   -6.2634   -2.4189  -24.4384 H   0  0  0  0  0  0  0  0  0  0  0  0
   -5.3823   -0.6452  -25.7727 H   0  0  0  0  0  0  0  0  0  0  0  0
   -8.0977    0.2460  -26.4640 H   0  0  0  0  0  0  0  0  0  0  0  0
   -5.5203    1.8877  -26.3673 H   0  0  0  0  0  0  0  0  0  0  0  0
   -6.9800    2.2987  -27.2837 H   0  0  0  0  0  0  0  0  0  0  0  0
   -6.0327    0.8665  -27.7244 H   0  0  0  0  0  0  0  0  0  0  0  0
  1  2  1  0
  2  3  1  0
  3  4  2  0
  4  5  1  0
  5  6  1  0
  6  7  1  0
  7  8  2  0
  7  9  1  0
  9 10  1  0
 10 11  2  0
 11 12  1  0
 12 13  2  0
 13 14  1  0
 14 15  2  0
 15 16  1  0
 16 17  2  0
 17 18  1  0
 18 19  2  0
 18 20  1  0
 17 21  1  0
 16 22  1  0
 15 23  1  0
 13 24  1  0
 11 25  1  0
  9 26  1  0
  9 27  1  0
  6 28  1  0
 28 29  1  0
 29 30  1  0
 29 31  1  0
 28 32  1  0
 28 33  1  0
  5 34  1  0
  5 35  1  0
  4 36  1  0
  3 37  1  0
  2 38  1  6
  1 39  1  0
  1 40  1  0
  1 41  1  0
 29  2  1  0
 19 10  1  0
 19 14  1  0
M  END
>  <cnnaffinities>  (10) 
[5.04955, 5.17969, 5.17511]

>  <score>  (10) 
5.04955

>  <index>  (10) 
9

>  <Smiles>  (10) 
C([C@]1(C(=C(C(N(C(=O)C(c2c(nc(c3c(c(c(c(c23)[H])[H])[H])[H])[H])[H])([H])[H])C(C1([H])[H])([H])[H])([H])[H])[H])[H])[H])([H])([H])[H]

>  <h>  (10) 
<NA>

>  <Training>  (10) 
True

>  <Success>  (10) 
True

>  <enamine_searched>  (10) 
False

>  <enamine_id>  (10) 
nan

$$$$

     RDKit          3D

 57 62  0  0  0  0  0  0  0  0999 V2000
   -7.3725   -3.7006  -23.7178 C   0  0  0  0  0  0  0  0  0  0  0  0
   -8.3180   -3.0512  -22.6935 C   0  0  1  0  0  0  0  0  0  0  0  0
   -7.6637   -2.7944  -21.3185 C   0  0  0  0  0  0  0  0  0  0  0  0
   -7.4169   -1.3701  -21.2820 N   0  0  0  0  0  0  0  0  0  0  0  0
   -6.6421   -0.7891  -20.2429 C   0  0  0  0  0  0  0  0  0  0  0  0
   -6.9383   -1.0633  -18.9297 C   0  0  0  0  0  0  0  0  0  0  0  0
   -6.2673   -0.5718  -17.8590 N   0  0  0  0  0  0  0  0  0  0  0  0
   -5.2402    0.2059  -18.1018 C   0  0  0  0  0  0  0  0  0  0  0  0
   -4.7862    0.5358  -19.4097 C   0  0  0  0  0  0  0  0  0  0  0  0
   -3.6438    1.3552  -19.6093 C   0  0  0  0  0  0  0  0  0  0  0  0
   -3.1946    1.6150  -20.8748 C   0  0  0  0  0  0  0  0  0  0  0  0
   -3.8573    1.0603  -21.9908 C   0  0  0  0  0  0  0  0  0  0  0  0
   -4.9702    0.2727  -21.8225 C   0  0  0  0  0  0  0  0  0  0  0  0
   -5.4821    0.0099  -20.5222 C   0  0  0  0  0  0  0  0  0  0  0  0
   -5.4609   -0.1660  -22.6847 H   0  0  0  0  0  0  0  0  0  0  0  0
   -3.4825    1.2571  -22.9903 H   0  0  0  0  0  0  0  0  0  0  0  0
   -2.3231    2.2447  -21.0287 H   0  0  0  0  0  0  0  0  0  0  0  0
   -3.1406    1.7609  -18.7358 H   0  0  0  0  0  0  0  0  0  0  0  0
   -4.6995    0.5987  -17.2413 H   0  0  0  0  0  0  0  0  0  0  0  0
   -7.7820   -1.7081  -18.6906 H   0  0  0  0  0  0  0  0  0  0  0  0
   -8.2599   -0.6656  -22.1231 C   0  0  0  0  0  0  0  0  0  0  0  0
   -8.3952    0.5375  -22.1077 O   0  0  0  0  0  0  0  0  0  0  0  0
   -8.9411   -1.6769  -23.1024 C   0  0  1  0  0  0  0  0  0  0  0  0
   -8.5674   -1.2448  -24.5341 C   0  0  0  0  0  0  0  0  0  0  0  0
   -9.3003   -0.0552  -24.9198 N   0  0  0  0  0  0  0  0  0  0  0  0
   -8.6265    1.0079  -25.6545 C   0  0  0  0  0  0  0  0  0  0  0  0
   -8.6223    0.7514  -27.1370 C   0  0  0  0  0  0  0  0  0  0  0  0
   -7.8686   -0.0601  -27.9173 C   0  0  0  0  0  0  0  0  0  0  0  0
   -8.4193   -0.0219  -29.1847 N   0  0  0  0  0  4  0  0  0  0  0  0
   -9.4908    0.7737  -29.1629 C   0  0  0  0  0  0  0  0  0  0  0  0
   -9.6367    1.2653  -27.9283 N   0  0  0  0  0  0  0  0  0  0  0  0
  -10.4792    1.6747  -27.5164 H   0  0  0  0  0  0  0  0  0  0  0  0
  -10.1299    1.0004  -30.0012 H   0  0  0  0  0  0  0  0  0  0  0  0
   -8.1089   -0.5943  -29.9635 H   0  0  0  0  0  0  0  0  0  0  0  0
   -6.9994   -0.6736  -27.6973 H   0  0  0  0  0  0  0  0  0  0  0  0
   -9.1865    1.9293  -25.4383 H   0  0  0  0  0  0  0  0  0  0  0  0
   -7.6153    1.1146  -25.2343 H   0  0  0  0  0  0  0  0  0  0  0  0
  -10.6634   -0.0600  -24.9169 C   0  0  0  0  0  0  0  0  0  0  0  0
  -11.3200    0.6652  -25.6696 O   0  0  0  0  0  0  0  0  0  0  0  0
  -11.2818   -0.9443  -23.8849 C   0  0  0  0  0  0  0  0  0  0  0  0
  -12.6752   -0.9312  -23.7709 C   0  0  0  0  0  0  0  0  0  0  0  0
  -13.3213   -1.6694  -22.8003 C   0  0  0  0  0  0  0  0  0  0  0  0
  -12.5163   -2.3648  -21.9095 C   0  0  0  0  0  0  0  0  0  0  0  0
  -13.1095   -3.0160  -20.8942 F   0  0  0  0  0  0  0  0  0  0  0  0
  -11.1360   -2.4137  -22.0023 C   0  0  0  0  0  0  0  0  0  0  0  0
  -10.4743   -1.6958  -23.0137 C   0  0  0  0  0  0  0  0  0  0  0  0
  -10.6144   -2.9851  -21.2453 H   0  0  0  0  0  0  0  0  0  0  0  0
  -14.4044   -1.7164  -22.7167 H   0  0  0  0  0  0  0  0  0  0  0  0
  -13.2385   -0.3079  -24.4568 H   0  0  0  0  0  0  0  0  0  0  0  0
   -8.7696   -2.0816  -25.2184 H   0  0  0  0  0  0  0  0  0  0  0  0
   -7.4985   -1.0301  -24.5654 H   0  0  0  0  0  0  0  0  0  0  0  0
   -8.3628   -3.0711  -20.5144 H   0  0  0  0  0  0  0  0  0  0  0  0
   -6.7212   -3.3358  -21.1763 H   0  0  0  0  0  0  0  0  0  0  0  0
   -9.1325   -3.7708  -22.5674 H   0  0  0  0  0  0  0  0  0  0  0  0
   -7.8936   -3.8894  -24.6638 H   0  0  0  0  0  0  0  0  0  0  0  0
   -7.0278   -4.6711  -23.3475 H   0  0  0  0  0  0  0  0  0  0  0  0
   -6.4875   -3.0932  -23.9359 H   0  0  0  0  0  0  0  0  0  0  0  0
  1  2  1  0
  2  3  1  0
  3  4  1  0
  4  5  1  0
  5  6  2  0
  6  7  1  0
  7  8  2  0
  8  9  1  0
  9 10  2  0
 10 11  1  0
 11 12  2  0
 12 13  1  0
 13 14  2  0
 13 15  1  0
 12 16  1  0
 11 17  1  0
 10 18  1  0
  8 19  1  0
  6 20  1  0
  4 21  1  0
 21 22  2  0
 21 23  1  0
 23 24  1  6
 24 25  1  0
 25 26  1  0
 26 27  1  0
 27 28  2  0
 28 29  1  0
 29 30  2  0
 30 31  1  0
 31 32  1  0
 30 33  1  0
 29 34  1  0
 28 35  1  0
 26 36  1  0
 26 37  1  0
 25 38  1  0
 38 39  2  0
 38 40  1  0
 40 41  2  0
 41 42  1  0
 42 43  2  0
 43 44  1  0
 43 45  1  0
 45 46  2  0
 45 47  1  0
 42 48  1  0
 41 49  1  0
 24 50  1  0
 24 51  1  0
  3 52  1  0
  3 53  1  0
  2 54  1  1
  1 55  1  0
  1 56  1  0
  1 57  1  0
 23  2  1  0
 31 27  1  0
 46 40  1  0
 14  5  1  0
 46 23  1  0
 14  9  1  0
M  CHG  1  29   1
M  END
>  <cnnaffinities>  (11) 
[6.35671, 6.26196]

>  <score>  (11) 
6.35671

>  <index>  (11) 
10

>  <Smiles>  (11) 
C([C@]1(C(N(c2c(nc(c3c(c(c(c(c23)[H])[H])[H])[H])[H])[H])C(=O)[C@]21C(N(C(c1c([n+](c(n1[H])[H])[H])[H])([H])[H])C(=O)c1c(c(c(F)c(c21)[H])[H])[H])([H])[H])([H])[H])[H])([H])([H])[H]

>  <h>  (11) 
<NA>

>  <Training>  (11) 
True

>  <Success>  (11) 
True

>  <enamine_searched>  (11) 
False

>  <enamine_id>  (11) 
nan

$$$$

     RDKit          3D

 48 52  0  0  0  0  0  0  0  0999 V2000
   -9.6741   -0.9253  -24.0304 C   0  0  0  0  0  0  0  0  0  0  0  0
   -8.6802   -1.3729  -23.0787 N   0  0  0  0  0  0  0  0  0  0  0  0
   -8.4175   -0.7112  -21.9028 C   0  0  0  0  0  0  0  0  0  0  0  0
   -8.9578    0.2790  -21.4673 O   0  0  0  0  0  0  0  0  0  0  0  0
   -7.3635   -1.4005  -21.2761 N   0  0  0  0  0  0  0  0  0  0  0  0
   -6.5866   -0.8293  -20.2171 C   0  0  0  0  0  0  0  0  0  0  0  0
   -6.9092   -1.0619  -18.9061 C   0  0  0  0  0  0  0  0  0  0  0  0
   -6.2190   -0.5577  -17.8483 N   0  0  0  0  0  0  0  0  0  0  0  0
   -5.1826    0.2042  -18.0956 C   0  0  0  0  0  0  0  0  0  0  0  0
   -4.7310    0.5285  -19.4041 C   0  0  0  0  0  0  0  0  0  0  0  0
   -3.6022    1.3599  -19.6327 C   0  0  0  0  0  0  0  0  0  0  0  0
   -3.2071    1.6516  -20.9089 C   0  0  0  0  0  0  0  0  0  0  0  0
   -3.9250    1.1267  -22.0071 C   0  0  0  0  0  0  0  0  0  0  0  0
   -5.0183    0.3254  -21.8083 C   0  0  0  0  0  0  0  0  0  0  0  0
   -5.4502   -0.0001  -20.4977 C   0  0  0  0  0  0  0  0  0  0  0  0
   -5.5686   -0.0666  -22.6559 H   0  0  0  0  0  0  0  0  0  0  0  0
   -3.6165    1.3581  -23.0196 H   0  0  0  0  0  0  0  0  0  0  0  0
   -2.3508    2.2935  -21.0917 H   0  0  0  0  0  0  0  0  0  0  0  0
   -3.0742    1.7632  -18.7734 H   0  0  0  0  0  0  0  0  0  0  0  0
   -4.6410    0.6052  -17.2382 H   0  0  0  0  0  0  0  0  0  0  0  0
   -7.7589   -1.6856  -18.6413 H   0  0  0  0  0  0  0  0  0  0  0  0
   -6.9231   -2.4680  -22.0635 C   0  0  0  0  0  0  0  0  0  0  0  0
   -6.0175   -3.2099  -21.7869 O   0  0  0  0  0  0  0  0  0  0  0  0
   -7.7874   -2.4735  -23.3208 C   0  0  0  0  0  0  0  0  0  0  0  0
   -8.3934   -3.8411  -23.7226 C   0  0  0  0  0  0  0  0  0  0  0  0
   -7.5886   -3.8624  -24.9675 N   0  0  0  0  0  0  0  0  0  0  0  0
   -8.4419   -3.9333  -26.4260 S   0  0  0  0  0  0  0  0  0  0  0  0
   -9.4718   -2.8991  -26.3858 O   0  0  0  0  0  0  0  0  0  0  0  0
   -7.4488   -3.9651  -27.4830 O   0  0  0  0  0  0  0  0  0  0  0  0
   -9.2916   -5.4838  -26.4309 C   0  0  0  0  0  0  0  0  0  0  0  0
  -10.6456   -5.5267  -26.0994 C   0  0  0  0  0  0  0  0  0  0  0  0
  -11.3295   -6.7365  -26.1545 C   0  0  0  0  0  0  0  0  0  0  0  0
  -10.6529   -7.8786  -26.5733 C   0  0  0  0  0  0  0  0  0  0  0  0
   -9.3108   -7.8126  -26.9049 C   0  0  0  0  0  0  0  0  0  0  0  0
   -8.6059   -6.6205  -26.8373 C   0  0  0  0  0  0  0  0  0  0  0  0
   -7.5620   -6.5619  -27.1286 H   0  0  0  0  0  0  0  0  0  0  0  0
   -8.8597   -8.7184  -27.2650 H   0  0  0  0  0  0  0  0  0  0  0  0
  -11.1342   -8.8471  -26.6810 H   0  0  0  0  0  0  0  0  0  0  0  0
  -12.3809   -6.7877  -25.8874 H   0  0  0  0  0  0  0  0  0  0  0  0
  -11.1483   -4.6032  -25.8309 H   0  0  0  0  0  0  0  0  0  0  0  0
   -6.9976   -2.5201  -24.6559 C   0  0  0  0  0  0  0  0  0  0  0  0
   -5.9186   -2.6046  -24.5224 H   0  0  0  0  0  0  0  0  0  0  0  0
   -7.2215   -1.7227  -25.3761 H   0  0  0  0  0  0  0  0  0  0  0  0
   -8.0931   -4.6594  -23.0701 H   0  0  0  0  0  0  0  0  0  0  0  0
   -9.4822   -3.8602  -23.8603 H   0  0  0  0  0  0  0  0  0  0  0  0
  -10.2212   -0.1124  -23.5510 H   0  0  0  0  0  0  0  0  0  0  0  0
   -9.2020   -0.5633  -24.9526 H   0  0  0  0  0  0  0  0  0  0  0  0
  -10.3499   -1.7478  -24.2915 H   0  0  0  0  0  0  0  0  0  0  0  0
  1  2  1  0
  2  3  1  0
  3  4  2  0
  3  5  1  0
  5  6  1  0
  6  7  2  0
  7  8  1  0
  8  9  2  0
  9 10  1  0
 10 11  2  0
 11 12  1  0
 12 13  2  0
 13 14  1  0
 14 15  2  0
 14 16  1  0
 13 17  1  0
 12 18  1  0
 11 19  1  0
  9 20  1  0
  7 21  1  0
  5 22  1  0
 22 23  2  0
 22 24  1  0
 24 25  1  0
 25 26  1  0
 26 27  1  0
 27 28  2  0
 27 29  2  0
 27 30  1  0
 30 31  2  0
 31 32  1  0
 32 33  2  0
 33 34  1  0
 34 35  2  0
 35 36  1  0
 34 37  1  0
 33 38  1  0
 32 39  1  0
 31 40  1  0
 26 41  1  0
 41 42  1  0
 41 43  1  0
 25 44  1  0
 25 45  1  0
  1 46  1  0
  1 47  1  0
  1 48  1  0
 24  2  1  0
 35 30  1  0
 15  6  1  0
 41 24  1  0
 15 10  1  0
M  END
>  <cnnaffinities>  (12) 
[5.6825, 5.66937, 5.68533, 5.98434, 5.69957, 5.70247, 5.70709]

>  <score>  (12) 
5.6825

>  <index>  (12) 
11

>  <Smiles>  (12) 
C(N1C(=O)N(c2c(nc(c3c(c(c(c(c23)[H])[H])[H])[H])[H])[H])C(=O)C21C(N(S(=O)(=O)c1c(c(c(c(c1[H])[H])[H])[H])[H])C2([H])[H])([H])[H])([H])([H])[H]

>  <h>  (12) 
<NA>

>  <Training>  (12) 
True

>  <Success>  (12) 
True

>  <enamine_searched>  (12) 
False

>  <enamine_id>  (12) 
nan

$$$$

     RDKit          3D

 76 82  0  0  0  0  0  0  0  0999 V2000
  -10.3256    1.1807  -25.8636 O   0  0  0  0  0  0  0  0  0  0  0  0
   -9.9802    0.2532  -25.1343 C   0  0  0  0  0  0  0  0  0  0  0  0
  -10.9746   -0.5372  -24.3426 C   0  0  0  0  0  0  0  0  0  0  0  0
  -12.3350   -0.3745  -24.6229 C   0  0  0  0  0  0  0  0  0  0  0  0
  -13.2909   -0.9897  -23.8338 C   0  0  0  0  0  0  0  0  0  0  0  0
  -12.8693   -1.7808  -22.7668 C   0  0  0  0  0  0  0  0  0  0  0  0
  -14.0469   -2.5286  -21.7240 Cl  0  0  0  0  0  0  0  0  0  0  0  0
  -11.5224   -1.9676  -22.4989 C   0  0  0  0  0  0  0  0  0  0  0  0
  -10.5367   -1.3714  -23.3025 C   0  0  0  0  0  0  0  0  0  0  0  0
   -9.0560   -1.5794  -23.0261 C   0  0  1  0  0  0  0  0  0  0  0  0
   -8.3045   -1.3642  -24.3649 C   0  0  0  0  0  0  0  0  0  0  0  0
   -8.6741   -0.1154  -24.9977 N   0  0  0  0  0  0  0  0  0  0  0  0
   -7.6708    0.6783  -25.6744 C   0  0  0  0  0  0  0  0  0  0  0  0
   -7.1842    1.8148  -24.7838 C   0  0  0  0  0  0  0  0  0  0  0  0
   -6.1731    2.6495  -25.4647 N   0  0  0  0  0  4  0  0  0  0  0  0
   -4.9481    1.8654  -25.8907 C   0  0  0  0  0  0  0  0  0  0  0  0
   -3.8196    2.8532  -26.1988 C   0  0  0  0  0  0  0  0  0  0  0  0
   -4.3875    4.0719  -26.6312 O   0  0  0  0  0  0  0  0  0  0  0  0
   -4.9132    4.7767  -25.5222 C   0  0  0  0  0  0  0  0  0  0  0  0
   -5.8008    3.8575  -24.6636 C   0  0  0  0  0  0  0  0  0  0  0  0
   -6.7154    4.3653  -24.3457 H   0  0  0  0  0  0  0  0  0  0  0  0
   -5.2747    3.5252  -23.7604 H   0  0  0  0  0  0  0  0  0  0  0  0
   -5.4733    5.6187  -25.9363 H   0  0  0  0  0  0  0  0  0  0  0  0
   -4.0943    5.1761  -24.9046 H   0  0  0  0  0  0  0  0  0  0  0  0
   -3.1939    3.0204  -25.3077 H   0  0  0  0  0  0  0  0  0  0  0  0
   -3.1802    2.4816  -27.0038 H   0  0  0  0  0  0  0  0  0  0  0  0
   -5.2021    1.2995  -26.7904 H   0  0  0  0  0  0  0  0  0  0  0  0
   -4.6723    1.1595  -25.0995 H   0  0  0  0  0  0  0  0  0  0  0  0
   -6.6034    3.0098  -26.3367 H   0  0  0  0  0  0  0  0  0  0  0  0
   -8.0482    2.4359  -24.5179 H   0  0  0  0  0  0  0  0  0  0  0  0
   -6.7703    1.4174  -23.8471 H   0  0  0  0  0  0  0  0  0  0  0  0
   -8.1340    1.1012  -26.5668 H   0  0  0  0  0  0  0  0  0  0  0  0
   -6.8486    0.0250  -25.9907 H   0  0  0  0  0  0  0  0  0  0  0  0
   -7.2217   -1.3724  -24.1894 H   0  0  0  0  0  0  0  0  0  0  0  0
   -8.5567   -2.1898  -25.0404 H   0  0  0  0  0  0  0  0  0  0  0  0
   -8.4652   -0.6057  -21.9696 C   0  0  0  0  0  0  0  0  0  0  0  0
   -8.7182    0.5668  -21.7952 O   0  0  0  0  0  0  0  0  0  0  0  0
   -7.5138   -1.3061  -21.2616 N   0  0  0  0  0  0  0  0  0  0  0  0
   -6.7312   -0.7472  -20.2365 C   0  0  0  0  0  0  0  0  0  0  0  0
   -7.0307   -1.0455  -18.9318 C   0  0  0  0  0  0  0  0  0  0  0  0
   -6.3416   -0.5789  -17.8665 N   0  0  0  0  0  0  0  0  0  0  0  0
   -5.3087    0.1877  -18.1283 C   0  0  0  0  0  0  0  0  0  0  0  0
   -4.8650    0.5297  -19.4381 C   0  0  0  0  0  0  0  0  0  0  0  0
   -3.7163    1.3341  -19.6504 C   0  0  0  0  0  0  0  0  0  0  0  0
   -3.2683    1.5862  -20.9171 C   0  0  0  0  0  0  0  0  0  0  0  0
   -3.9470    1.0478  -22.0334 C   0  0  0  0  0  0  0  0  0  0  0  0
   -5.0769    0.2830  -21.8584 C   0  0  0  0  0  0  0  0  0  0  0  0
   -5.5748    0.0257  -20.5472 C   0  0  0  0  0  0  0  0  0  0  0  0
   -5.5791   -0.1353  -22.7271 H   0  0  0  0  0  0  0  0  0  0  0  0
   -3.5668    1.2344  -23.0343 H   0  0  0  0  0  0  0  0  0  0  0  0
   -2.3829    2.1968  -21.0654 H   0  0  0  0  0  0  0  0  0  0  0  0
   -3.2063    1.7267  -18.7766 H   0  0  0  0  0  0  0  0  0  0  0  0
   -4.7468    0.5591  -17.2746 H   0  0  0  0  0  0  0  0  0  0  0  0
   -7.8829   -1.6920  -18.7201 H   0  0  0  0  0  0  0  0  0  0  0  0
   -7.3963   -2.6984  -21.6074 C   0  0  0  0  0  0  0  0  0  0  0  0
   -8.6916   -2.9583  -22.3731 C   0  0  2  0  0  0  0  0  0  0  0  0
   -8.5714   -4.1710  -23.2860 C   0  0  0  0  0  0  0  0  0  0  0  0
   -9.7950   -4.3968  -24.0233 N   0  0  0  0  0  0  0  0  0  0  0  0
   -9.8374   -5.2508  -25.0736 C   0  0  0  0  0  0  0  0  0  0  0  0
  -10.9479   -5.2221  -25.8287 N   0  0  0  0  0  0  0  0  0  0  0  0
  -10.9971   -6.0923  -26.8284 C   0  0  0  0  0  0  0  0  0  0  0  0
   -9.9622   -6.9767  -27.1047 C   0  0  0  0  0  0  0  0  0  0  0  0
   -8.8561   -6.8987  -26.2711 C   0  0  0  0  0  0  0  0  0  0  0  0
   -8.7689   -6.0473  -25.2540 N   0  0  0  0  0  0  0  0  0  0  0  0
   -7.9892   -7.5415  -26.4271 H   0  0  0  0  0  0  0  0  0  0  0  0
  -10.0042   -7.6812  -27.9213 H   0  0  0  0  0  0  0  0  0  0  0  0
  -11.9052   -6.0717  -27.4324 H   0  0  0  0  0  0  0  0  0  0  0  0
  -10.5340   -3.7071  -24.0097 H   0  0  0  0  0  0  0  0  0  0  0  0
   -8.3399   -5.0722  -22.7051 H   0  0  0  0  0  0  0  0  0  0  0  0
   -7.7332   -4.0435  -23.9859 H   0  0  0  0  0  0  0  0  0  0  0  0
   -9.4692   -3.1738  -21.6327 H   0  0  0  0  0  0  0  0  0  0  0  0
   -6.5103   -2.8891  -22.2346 H   0  0  0  0  0  0  0  0  0  0  0  0
   -7.2815   -3.3016  -20.7017 H   0  0  0  0  0  0  0  0  0  0  0  0
  -11.2595   -2.5692  -21.6439 H   0  0  0  0  0  0  0  0  0  0  0  0
  -14.3456   -0.8219  -24.0152 H   0  0  0  0  0  0  0  0  0  0  0  0
  -12.6178    0.2747  -25.4493 H   0  0  0  0  0  0  0  0  0  0  0  0
  1  2  2  0
  2  3  1  0
  3  4  2  0
  4  5  1  0
  5  6  2  0
  6  7  1  0
  6  8  1  0
  8  9  2  0
  9 10  1  0
 10 11  1  6
 11 12  1  0
 12 13  1  0
 13 14  1  0
 14 15  1  0
 15 16  1  0
 16 17  1  0
 17 18  1  0
 18 19  1  0
 19 20  1  0
 20 21  1  0
 20 22  1  0
 19 23  1  0
 19 24  1  0
 17 25  1  0
 17 26  1  0
 16 27  1  0
 16 28  1  0
 15 29  1  0
 14 30  1  0
 14 31  1  0
 13 32  1  0
 13 33  1  0
 11 34  1  0
 11 35  1  0
 10 36  1  0
 36 37  2  0
 36 38  1  0
 38 39  1  0
 39 40  2  0
 40 41  1  0
 41 42  2  0
 42 43  1  0
 43 44  2  0
 44 45  1  0
 45 46  2  0
 46 47  1  0
 47 48  2  0
 47 49  1  0
 46 50  1  0
 45 51  1  0
 44 52  1  0
 42 53  1  0
 40 54  1  0
 38 55  1  0
 55 56  1  0
 56 57  1  0
 57 58  1  0
 58 59  1  0
 59 60  2  0
 60 61  1  0
 61 62  2  0
 62 63  1  0
 63 64  2  0
 63 65  1  0
 62 66  1  0
 61 67  1  0
 58 68  1  0
 57 69  1  0
 57 70  1  0
 56 71  1  1
 55 72  1  0
 55 73  1  0
  8 74  1  0
  5 75  1  0
  4 76  1  0
 12  2  1  0
 20 15  1  0
 48 39  1  0
 64 59  1  0
  9  3  1  0
 56 10  1  0
 48 43  1  0
M  CHG  1  15   1
M  END
>  <cnnaffinities>  (13) 
[6.87715]

>  <score>  (13) 
6.87715

>  <index>  (13) 
12

>  <Smiles>  (13) 
O=C1c2c(c(c(Cl)c(c2[C@@]2(C(N1C(C([N+]1(C(C(OC(C1([H])[H])([H])[H])([H])[H])([H])[H])[H])([H])[H])([H])[H])([H])[H])C(=O)N(c1c(nc(c3c(c(c(c(c13)[H])[H])[H])[H])[H])[H])C([C@@]2(C(N(c1nc(c(c(n1)[H])[H])[H])[H])([H])[H])[H])([H])[H])[H])[H])[H]

>  <h>  (13) 
<NA>

>  <Training>  (13) 
True

>  <Success>  (13) 
True

>  <enamine_searched>  (13) 
False

>  <enamine_id>  (13) 
nan

$$$$

     RDKit          3D

 69 74  0  0  0  0  0  0  0  0999 V2000
   -6.9114    0.3584  -29.3508 C   0  0  0  0  0  0  0  0  0  0  0  0
   -7.3597    0.7554  -28.0366 N   0  0  0  0  0  0  0  0  0  0  0  0
   -6.6832    0.3516  -26.9306 C   0  0  0  0  0  0  0  0  0  0  0  0
   -5.7450   -0.4254  -26.9521 O   0  0  0  0  0  0  0  0  0  0  0  0
   -7.1905    0.9697  -25.6240 C   0  0  0  0  0  0  0  0  0  0  0  0
   -8.2735    0.2071  -25.0253 N   0  0  0  0  0  0  0  0  0  0  0  0
   -7.9418   -1.0432  -24.3538 C   0  0  0  0  0  0  0  0  0  0  0  0
   -8.8547   -1.2903  -23.1144 C   0  0  2  0  0  0  0  0  0  0  0  0
   -8.3571   -0.3805  -21.9510 C   0  0  0  0  0  0  0  0  0  0  0  0
   -8.6287    0.7759  -21.7380 O   0  0  0  0  0  0  0  0  0  0  0  0
   -7.4791   -1.1402  -21.1831 N   0  0  0  0  0  0  0  0  0  0  0  0
   -6.6558   -0.6213  -20.1471 C   0  0  0  0  0  0  0  0  0  0  0  0
   -6.9297   -0.9310  -18.8385 C   0  0  0  0  0  0  0  0  0  0  0  0
   -6.2245   -0.4816  -17.7700 N   0  0  0  0  0  0  0  0  0  0  0  0
   -5.1889    0.2873  -18.0104 C   0  0  0  0  0  0  0  0  0  0  0  0
   -4.7450    0.6324  -19.3185 C   0  0  0  0  0  0  0  0  0  0  0  0
   -3.5889    1.4311  -19.5327 C   0  0  0  0  0  0  0  0  0  0  0  0
   -3.1375    1.6683  -20.8018 C   0  0  0  0  0  0  0  0  0  0  0  0
   -3.8173    1.1211  -21.9123 C   0  0  0  0  0  0  0  0  0  0  0  0
   -4.9568    0.3773  -21.7323 C   0  0  0  0  0  0  0  0  0  0  0  0
   -5.4676    0.1332  -20.4278 C   0  0  0  0  0  0  0  0  0  0  0  0
   -5.4675   -0.0398  -22.5959 H   0  0  0  0  0  0  0  0  0  0  0  0
   -3.4356    1.2855  -22.9148 H   0  0  0  0  0  0  0  0  0  0  0  0
   -2.2475    2.2686  -20.9667 H   0  0  0  0  0  0  0  0  0  0  0  0
   -3.0715    1.8409  -18.6687 H   0  0  0  0  0  0  0  0  0  0  0  0
   -4.6247    0.6495  -17.1492 H   0  0  0  0  0  0  0  0  0  0  0  0
   -7.7764   -1.5772  -18.6106 H   0  0  0  0  0  0  0  0  0  0  0  0
   -7.3217   -2.4986  -21.6665 C   0  0  0  0  0  0  0  0  0  0  0  0
   -8.6057   -2.6810  -22.4757 C   0  0  2  0  0  0  0  0  0  0  0  0
   -8.6094   -3.8349  -23.4596 C   0  0  0  0  0  0  0  0  0  0  0  0
   -8.6762   -5.1194  -22.7877 N   0  0  0  0  0  0  0  0  0  0  0  0
   -8.0986   -6.1806  -23.4081 C   0  0  0  0  0  0  0  0  0  0  0  0
   -7.6092   -7.2993  -22.7093 C   0  0  0  0  0  0  0  0  0  0  0  0
   -6.8622   -8.1763  -23.4523 C   0  0  0  0  0  0  0  0  0  0  0  0
   -6.6944   -8.0774  -24.7801 N   0  0  0  0  0  0  0  0  0  0  0  0
   -7.3108   -7.0552  -25.3576 C   0  0  0  0  0  0  0  0  0  0  0  0
   -7.2097   -6.9349  -26.8505 C   0  0  0  0  0  0  0  0  0  0  0  0
   -6.3816   -7.5435  -27.2207 H   0  0  0  0  0  0  0  0  0  0  0  0
   -7.0691   -5.8859  -27.1281 H   0  0  0  0  0  0  0  0  0  0  0  0
   -8.1301   -7.2941  -27.3229 H   0  0  0  0  0  0  0  0  0  0  0  0
   -7.9771   -6.0830  -24.7333 N   0  0  0  0  0  0  0  0  0  0  0  0
   -6.3314   -8.9978  -22.9763 H   0  0  0  0  0  0  0  0  0  0  0  0
   -7.7353   -7.4404  -21.6417 H   0  0  0  0  0  0  0  0  0  0  0  0
   -8.6639   -5.1387  -21.7826 H   0  0  0  0  0  0  0  0  0  0  0  0
   -9.4464   -3.7596  -24.1636 H   0  0  0  0  0  0  0  0  0  0  0  0
   -7.7070   -3.8072  -24.0838 H   0  0  0  0  0  0  0  0  0  0  0  0
   -9.4031   -2.8651  -21.7446 H   0  0  0  0  0  0  0  0  0  0  0  0
   -7.2270   -3.1816  -20.8185 H   0  0  0  0  0  0  0  0  0  0  0  0
   -6.4232   -2.6217  -22.3036 H   0  0  0  0  0  0  0  0  0  0  0  0
  -10.2904   -1.0947  -23.5694 C   0  0  0  0  0  0  0  0  0  0  0  0
  -11.3534   -1.7078  -22.8876 C   0  0  0  0  0  0  0  0  0  0  0  0
  -12.6532   -1.5289  -23.3192 C   0  0  0  0  0  0  0  0  0  0  0  0
  -13.9381   -2.3216  -22.4605 Cl  0  0  0  0  0  0  0  0  0  0  0  0
  -12.9651   -0.7290  -24.4150 C   0  0  0  0  0  0  0  0  0  0  0  0
  -11.9272   -0.1214  -25.0897 C   0  0  0  0  0  0  0  0  0  0  0  0
  -10.6054   -0.3129  -24.6926 C   0  0  0  0  0  0  0  0  0  0  0  0
   -9.5466    0.3983  -25.4744 C   0  0  0  0  0  0  0  0  0  0  0  0
   -9.8066    1.1039  -26.4499 O   0  0  0  0  0  0  0  0  0  0  0  0
  -12.1070    0.5362  -25.9291 H   0  0  0  0  0  0  0  0  0  0  0  0
  -13.9969   -0.5852  -24.7144 H   0  0  0  0  0  0  0  0  0  0  0  0
  -11.1901   -2.2988  -21.9927 H   0  0  0  0  0  0  0  0  0  0  0  0
   -8.0619   -1.8787  -25.0589 H   0  0  0  0  0  0  0  0  0  0  0  0
   -6.8840   -1.0057  -24.0726 H   0  0  0  0  0  0  0  0  0  0  0  0
   -7.5168    2.0024  -25.7798 H   0  0  0  0  0  0  0  0  0  0  0  0
   -6.3576    0.9778  -24.9160 H   0  0  0  0  0  0  0  0  0  0  0  0
   -8.2785    1.1570  -27.9057 H   0  0  0  0  0  0  0  0  0  0  0  0
   -7.1177   -0.6948  -29.5666 H   0  0  0  0  0  0  0  0  0  0  0  0
   -5.8321    0.5082  -29.4279 H   0  0  0  0  0  0  0  0  0  0  0  0
   -7.4093    0.9801  -30.0967 H   0  0  0  0  0  0  0  0  0  0  0  0
  1  2  1  0
  2  3  1  0
  3  4  2  0
  3  5  1  0
  5  6  1  0
  6  7  1  0
  8  7  1  6
  8  9  1  0
  9 10  2  0
  9 11  1  0
 11 12  1  0
 12 13  2  0
 13 14  1  0
 14 15  2  0
 15 16  1  0
 16 17  2  0
 17 18  1  0
 18 19  2  0
 19 20  1  0
 20 21  2  0
 20 22  1  0
 19 23  1  0
 18 24  1  0
 17 25  1  0
 15 26  1  0
 13 27  1  0
 11 28  1  0
 28 29  1  0
 29 30  1  0
 30 31  1  0
 31 32  1  0
 32 33  2  0
 33 34  1  0
 34 35  2  0
 35 36  1  0
 36 37  1  0
 37 38  1  0
 37 39  1  0
 37 40  1  0
 36 41  2  0
 34 42  1  0
 33 43  1  0
 31 44  1  0
 30 45  1  0
 30 46  1  0
 29 47  1  1
 28 48  1  0
 28 49  1  0
  8 50  1  0
 50 51  2  0
 51 52  1  0
 52 53  1  0
 52 54  2  0
 54 55  1  0
 55 56  2  0
 56 57  1  0
 57 58  2  0
 55 59  1  0
 54 60  1  0
 51 61  1  0
  7 62  1  0
  7 63  1  0
  5 64  1  0
  5 65  1  0
  2 66  1  0
  1 67  1  0
  1 68  1  0
  1 69  1  0
 57  6  1  0
 29  8  1  0
 41 32  1  0
 56 50  1  0
 21 12  1  0
 21 16  1  0
M  END
>  <cnnaffinities>  (14) 
[6.7469, 6.82141]

>  <score>  (14) 
6.7469

>  <index>  (14) 
13

>  <Smiles>  (14) 
C(N(C(=O)C(N1C([C@@]2(C(=O)N(c3c(nc(c4c(c(c(c(c34)[H])[H])[H])[H])[H])[H])C([C@@]2(C(N(c2c(c(nc(C([H])([H])[H])n2)[H])[H])[H])([H])[H])[H])([H])[H])c2c(c(Cl)c(c(c2C1=O)[H])[H])[H])([H])[H])([H])[H])[H])([H])([H])[H]

>  <h>  (14) 
<NA>

>  <Training>  (14) 
True

>  <Success>  (14) 
True

>  <enamine_searched>  (14) 
False

>  <enamine_id>  (14) 
nan

$$$$

     RDKit          3D

 73 78  0  0  0  0  0  0  0  0999 V2000
   -7.9654   -3.7834  -23.9502 C   0  0  0  0  0  0  0  0  0  0  0  0
   -8.2515   -2.9022  -22.7459 C   0  0  1  0  0  0  0  0  0  0  0  0
   -7.0417   -2.6618  -21.8393 C   0  0  0  0  0  0  0  0  0  0  0  0
   -7.3961   -1.4243  -21.1724 N   0  0  0  0  0  0  0  0  0  0  0  0
   -6.6071   -0.8210  -20.1669 C   0  0  0  0  0  0  0  0  0  0  0  0
   -6.9249   -1.0459  -18.8541 C   0  0  0  0  0  0  0  0  0  0  0  0
   -6.2365   -0.5455  -17.8019 N   0  0  0  0  0  0  0  0  0  0  0  0
   -5.2061    0.2187  -18.0799 C   0  0  0  0  0  0  0  0  0  0  0  0
   -4.7778    0.5450  -19.4008 C   0  0  0  0  0  0  0  0  0  0  0  0
   -3.6533    1.3800  -19.6334 C   0  0  0  0  0  0  0  0  0  0  0  0
   -3.2575    1.6750  -20.9103 C   0  0  0  0  0  0  0  0  0  0  0  0
   -3.9735    1.1595  -22.0128 C   0  0  0  0  0  0  0  0  0  0  0  0
   -5.0690    0.3517  -21.8126 C   0  0  0  0  0  0  0  0  0  0  0  0
   -5.4974    0.0159  -20.4937 C   0  0  0  0  0  0  0  0  0  0  0  0
   -5.5946   -0.0419  -22.6755 H   0  0  0  0  0  0  0  0  0  0  0  0
   -3.6635    1.4133  -23.0239 H   0  0  0  0  0  0  0  0  0  0  0  0
   -2.3887    2.3037  -21.0794 H   0  0  0  0  0  0  0  0  0  0  0  0
   -3.1243    1.7712  -18.7706 H   0  0  0  0  0  0  0  0  0  0  0  0
   -4.6443    0.6221  -17.2392 H   0  0  0  0  0  0  0  0  0  0  0  0
   -7.7894   -1.6666  -18.6309 H   0  0  0  0  0  0  0  0  0  0  0  0
   -8.3943   -0.7085  -21.7960 C   0  0  0  0  0  0  0  0  0  0  0  0
   -8.8390    0.3363  -21.3671 O   0  0  0  0  0  0  0  0  0  0  0  0
   -8.7740   -1.4761  -23.0867 C   0  0  1  0  0  0  0  0  0  0  0  0
   -8.0166   -0.8954  -24.3133 C   0  0  0  0  0  0  0  0  0  0  0  0
   -8.5235    0.4031  -24.6991 N   0  0  0  0  0  0  0  0  0  0  0  0
   -7.6435    1.5349  -24.9151 C   0  0  0  0  0  0  0  0  0  0  0  0
   -7.5835    2.4538  -23.6923 C   0  0  0  0  0  0  0  0  0  0  0  0
   -6.4894    3.4843  -23.8322 N   0  0  0  0  0  4  0  0  0  0  0  0
   -6.7969    4.6022  -24.8143 C   0  0  0  0  0  0  0  0  0  0  0  0
   -7.7548    5.6484  -24.2295 C   0  0  0  0  0  0  0  0  0  0  0  0
   -7.2823    6.1697  -22.9450 N   0  0  0  0  0  0  0  0  0  0  0  0
   -6.5497    7.6642  -22.8593 S   0  0  0  0  0  0  0  0  0  0  0  0
   -6.1068    7.8574  -21.4883 O   0  0  0  0  0  0  0  0  0  0  0  0
   -7.4415    8.6180  -23.5046 O   0  0  0  0  0  0  0  0  0  0  0  0
   -5.0988    7.5315  -23.9082 C   0  0  0  0  0  0  0  0  0  0  0  0
   -5.4369    7.4659  -24.9488 H   0  0  0  0  0  0  0  0  0  0  0  0
   -4.5077    6.6545  -23.6251 H   0  0  0  0  0  0  0  0  0  0  0  0
   -4.5078    8.4436  -23.7715 H   0  0  0  0  0  0  0  0  0  0  0  0
   -7.0093    5.1109  -21.9690 C   0  0  0  0  0  0  0  0  0  0  0  0
   -6.0272    4.0759  -22.5202 C   0  0  0  0  0  0  0  0  0  0  0  0
   -5.0589    4.5487  -22.7091 H   0  0  0  0  0  0  0  0  0  0  0  0
   -5.8839    3.2554  -21.8068 H   0  0  0  0  0  0  0  0  0  0  0  0
   -7.9604    4.6064  -21.7511 H   0  0  0  0  0  0  0  0  0  0  0  0
   -6.6386    5.5491  -21.0416 H   0  0  0  0  0  0  0  0  0  0  0  0
   -8.7318    5.1781  -24.0608 H   0  0  0  0  0  0  0  0  0  0  0  0
   -7.9100    6.4713  -24.9303 H   0  0  0  0  0  0  0  0  0  0  0  0
   -7.2212    4.1712  -25.7244 H   0  0  0  0  0  0  0  0  0  0  0  0
   -5.8456    5.0745  -25.0769 H   0  0  0  0  0  0  0  0  0  0  0  0
   -5.6728    2.9667  -24.2043 H   0  0  0  0  0  0  0  0  0  0  0  0
   -7.3812    1.8656  -22.7922 H   0  0  0  0  0  0  0  0  0  0  0  0
   -8.5472    2.9505  -23.5534 H   0  0  0  0  0  0  0  0  0  0  0  0
   -6.6381    1.1644  -25.1383 H   0  0  0  0  0  0  0  0  0  0  0  0
   -8.0066    2.0815  -25.7888 H   0  0  0  0  0  0  0  0  0  0  0  0
   -9.8477    0.5447  -24.9834 C   0  0  0  0  0  0  0  0  0  0  0  0
  -10.2805    1.4433  -25.6921 O   0  0  0  0  0  0  0  0  0  0  0  0
  -10.7504   -0.4565  -24.3089 C   0  0  0  0  0  0  0  0  0  0  0  0
  -12.1214   -0.3384  -24.5320 C   0  0  0  0  0  0  0  0  0  0  0  0
  -13.0260   -1.0801  -23.7950 C   0  0  0  0  0  0  0  0  0  0  0  0
  -12.5258   -1.9966  -22.8688 C   0  0  0  0  0  0  0  0  0  0  0  0
  -13.6256   -2.9558  -21.9194 Cl  0  0  0  0  0  0  0  0  0  0  0  0
  -11.1688   -2.1707  -22.6792 C   0  0  0  0  0  0  0  0  0  0  0  0
  -10.2508   -1.3866  -23.3873 C   0  0  0  0  0  0  0  0  0  0  0  0
  -10.8416   -2.9255  -21.9731 H   0  0  0  0  0  0  0  0  0  0  0  0
  -14.0961   -0.9298  -23.8993 H   0  0  0  0  0  0  0  0  0  0  0  0
  -12.4466    0.3913  -25.2655 H   0  0  0  0  0  0  0  0  0  0  0  0
   -8.1642   -1.5875  -25.1551 H   0  0  0  0  0  0  0  0  0  0  0  0
   -6.9439   -0.8145  -24.1134 H   0  0  0  0  0  0  0  0  0  0  0  0
   -6.1132   -2.5724  -22.4256 H   0  0  0  0  0  0  0  0  0  0  0  0
   -6.8914   -3.4664  -21.1148 H   0  0  0  0  0  0  0  0  0  0  0  0
   -9.0091   -3.3862  -22.1218 H   0  0  0  0  0  0  0  0  0  0  0  0
   -7.1355   -3.3719  -24.5357 H   0  0  0  0  0  0  0  0  0  0  0  0
   -7.6872   -4.7940  -23.6421 H   0  0  0  0  0  0  0  0  0  0  0  0
   -8.8433   -3.8423  -24.6028 H   0  0  0  0  0  0  0  0  0  0  0  0
  1  2  1  0
  2  3  1  0
  3  4  1  0
  4  5  1  0
  5  6  2  0
  6  7  1  0
  7  8  2  0
  8  9  1  0
  9 10  2  0
 10 11  1  0
 11 12  2  0
 12 13  1  0
 13 14  2  0
 13 15  1  0
 12 16  1  0
 11 17  1  0
 10 18  1  0
  8 19  1  0
  6 20  1  0
  4 21  1  0
 21 22  2  0
 21 23  1  0
 23 24  1  6
 24 25  1  0
 25 26  1  0
 26 27  1  0
 27 28  1  0
 28 29  1  0
 29 30  1  0
 30 31  1  0
 31 32  1  0
 32 33  2  0
 32 34  2  0
 32 35  1  0
 35 36  1  0
 35 37  1  0
 35 38  1  0
 31 39  1  0
 39 40  1  0
 40 41  1  0
 40 42  1  0
 39 43  1  0
 39 44  1  0
 30 45  1  0
 30 46  1  0
 29 47  1  0
 29 48  1  0
 28 49  1  0
 27 50  1  0
 27 51  1  0
 26 52  1  0
 26 53  1  0
 25 54  1  0
 54 55  2  0
 54 56  1  0
 56 57  2  0
 57 58  1  0
 58 59  2  0
 59 60  1  0
 59 61  1  0
 61 62  2  0
 61 63  1  0
 58 64  1  0
 57 65  1  0
 24 66  1  0
 24 67  1  0
  3 68  1  0
  3 69  1  0
  2 70  1  1
  1 71  1  0
  1 72  1  0
  1 73  1  0
 23  2  1  0
 40 28  1  0
 62 56  1  0
 14  5  1  0
 62 23  1  0
 14  9  1  0
M  CHG  1  28   1
M  END
>  <cnnaffinities>  (15) 
[7.00918]

>  <score>  (15) 
7.00918

>  <index>  (15) 
14

>  <Smiles>  (15) 
C([C@]1(C(N(c2c(nc(c3c(c(c(c(c23)[H])[H])[H])[H])[H])[H])C(=O)[C@]21C(N(C(C([N+]1(C(C(N(S(=O)(=O)C([H])([H])[H])C(C1([H])[H])([H])[H])([H])[H])([H])[H])[H])([H])[H])([H])[H])C(=O)c1c(c(c(Cl)c(c21)[H])[H])[H])([H])[H])([H])[H])[H])([H])([H])[H]

>  <h>  (15) 
<NA>

>  <Training>  (15) 
True

>  <Success>  (15) 
True

>  <enamine_searched>  (15) 
False

>  <enamine_id>  (15) 
nan

$$$$

     RDKit          3D

 63 68  0  0  0  0  0  0  0  0999 V2000
   -6.8188    3.3274  -22.1012 C   0  0  0  0  0  0  0  0  0  0  0  0
   -6.9832    2.6985  -23.3996 N   0  0  0  0  0  0  0  0  0  0  0  0
   -8.2272    2.4794  -23.8995 C   0  0  0  0  0  0  0  0  0  0  0  0
   -9.2403    2.9430  -23.3991 O   0  0  0  0  0  0  0  0  0  0  0  0
   -8.3209    1.5873  -25.1360 C   0  0  0  0  0  0  0  0  0  0  0  0
   -8.9684    0.3455  -24.7619 N   0  0  0  0  0  0  0  0  0  0  0  0
   -8.2017   -0.7944  -24.3094 C   0  0  0  0  0  0  0  0  0  0  0  0
   -8.8024   -1.4875  -23.0535 C   0  0  2  0  0  0  0  0  0  0  0  0
   -8.3758   -0.7293  -21.7755 C   0  0  0  0  0  0  0  0  0  0  0  0
   -8.8182    0.3085  -21.3289 O   0  0  0  0  0  0  0  0  0  0  0  0
   -7.3452   -1.4228  -21.1856 N   0  0  0  0  0  0  0  0  0  0  0  0
   -6.5838   -0.8183  -20.1611 C   0  0  0  0  0  0  0  0  0  0  0  0
   -6.9293   -1.0260  -18.8518 C   0  0  0  0  0  0  0  0  0  0  0  0
   -6.2491   -0.5125  -17.8004 N   0  0  0  0  0  0  0  0  0  0  0  0
   -5.2095    0.2404  -18.0759 C   0  0  0  0  0  0  0  0  0  0  0  0
   -4.7571    0.5476  -19.3931 C   0  0  0  0  0  0  0  0  0  0  0  0
   -3.6251    1.3715  -19.6327 C   0  0  0  0  0  0  0  0  0  0  0  0
   -3.2080    1.6270  -20.9109 C   0  0  0  0  0  0  0  0  0  0  0  0
   -3.9090    1.0828  -22.0110 C   0  0  0  0  0  0  0  0  0  0  0  0
   -5.0172    0.2937  -21.8069 C   0  0  0  0  0  0  0  0  0  0  0  0
   -5.4655    0.0033  -20.4851 C   0  0  0  0  0  0  0  0  0  0  0  0
   -5.5480   -0.1139  -22.6635 H   0  0  0  0  0  0  0  0  0  0  0  0
   -3.5732    1.2999  -23.0220 H   0  0  0  0  0  0  0  0  0  0  0  0
   -2.3423    2.2594  -21.0867 H   0  0  0  0  0  0  0  0  0  0  0  0
   -3.1071    1.7835  -18.7730 H   0  0  0  0  0  0  0  0  0  0  0  0
   -4.6634    0.6528  -17.2296 H   0  0  0  0  0  0  0  0  0  0  0  0
   -7.7984   -1.6390  -18.6191 H   0  0  0  0  0  0  0  0  0  0  0  0
   -6.9512   -2.6304  -21.8743 C   0  0  0  0  0  0  0  0  0  0  0  0
   -8.1472   -2.8762  -22.8039 C   0  0  2  0  0  0  0  0  0  0  0  0
   -7.7891   -3.6413  -24.0809 C   0  0  0  0  0  0  0  0  0  0  0  0
   -7.3448   -4.9970  -23.8314 N   0  0  0  0  0  0  0  0  0  0  0  0
   -8.0881   -6.1226  -23.7253 C   0  0  0  0  0  0  0  0  0  0  0  0
   -7.2297   -7.1365  -23.3598 C   0  0  0  0  0  0  0  0  0  0  0  0
   -5.9725   -6.5045  -23.2628 C   0  0  0  0  0  0  0  0  0  0  0  0
   -6.0552   -5.2076  -23.5338 N   0  0  0  0  0  0  0  0  0  0  0  0
   -5.0049   -6.9268  -23.0194 H   0  0  0  0  0  0  0  0  0  0  0  0
   -7.4702   -8.1803  -23.2016 H   0  0  0  0  0  0  0  0  0  0  0  0
   -9.1492   -6.1218  -23.9419 H   0  0  0  0  0  0  0  0  0  0  0  0
   -6.9546   -3.1426  -24.5827 H   0  0  0  0  0  0  0  0  0  0  0  0
   -8.6579   -3.6727  -24.7475 H   0  0  0  0  0  0  0  0  0  0  0  0
   -8.8634   -3.4843  -22.2460 H   0  0  0  0  0  0  0  0  0  0  0  0
   -6.0122   -2.4935  -22.4332 H   0  0  0  0  0  0  0  0  0  0  0  0
   -6.7885   -3.4521  -21.1670 H   0  0  0  0  0  0  0  0  0  0  0  0
  -10.3102   -1.5459  -23.1812 C   0  0  0  0  0  0  0  0  0  0  0  0
  -11.0566   -2.3177  -22.2744 C   0  0  0  0  0  0  0  0  0  0  0  0
  -12.4383   -2.2791  -22.2999 C   0  0  0  0  0  0  0  0  0  0  0  0
  -13.3366   -3.2696  -21.1785 Cl  0  0  0  0  0  0  0  0  0  0  0  0
  -13.1360   -1.4823  -23.2113 C   0  0  0  0  0  0  0  0  0  0  0  0
  -12.4080   -0.7444  -24.1265 C   0  0  0  0  0  0  0  0  0  0  0  0
  -11.0121   -0.7543  -24.0989 C   0  0  0  0  0  0  0  0  0  0  0  0
  -10.3139    0.2198  -24.9997 C   0  0  0  0  0  0  0  0  0  0  0  0
  -10.9115    0.8932  -25.8265 O   0  0  0  0  0  0  0  0  0  0  0  0
  -12.8900   -0.1063  -24.8610 H   0  0  0  0  0  0  0  0  0  0  0  0
  -14.2197   -1.4254  -23.1904 H   0  0  0  0  0  0  0  0  0  0  0  0
  -10.5884   -2.9453  -21.5214 H   0  0  0  0  0  0  0  0  0  0  0  0
   -8.1616   -1.5159  -25.1320 H   0  0  0  0  0  0  0  0  0  0  0  0
   -7.1838   -0.4599  -24.0930 H   0  0  0  0  0  0  0  0  0  0  0  0
   -7.3514    1.4157  -25.6182 H   0  0  0  0  0  0  0  0  0  0  0  0
   -8.9861    2.0502  -25.8682 H   0  0  0  0  0  0  0  0  0  0  0  0
   -6.2006    2.2002  -23.7921 H   0  0  0  0  0  0  0  0  0  0  0  0
   -5.8086    3.1216  -21.7347 H   0  0  0  0  0  0  0  0  0  0  0  0
   -7.5657    2.9004  -21.4314 H   0  0  0  0  0  0  0  0  0  0  0  0
   -6.9872    4.4085  -22.1427 H   0  0  0  0  0  0  0  0  0  0  0  0
  1  2  1  0
  2  3  1  0
  3  4  2  0
  3  5  1  0
  5  6  1  0
  6  7  1  0
  8  7  1  6
  8  9  1  0
  9 10  2  0
  9 11  1  0
 11 12  1  0
 12 13  2  0
 13 14  1  0
 14 15  2  0
 15 16  1  0
 16 17  2  0
 17 18  1  0
 18 19  2  0
 19 20  1  0
 20 21  2  0
 20 22  1  0
 19 23  1  0
 18 24  1  0
 17 25  1  0
 15 26  1  0
 13 27  1  0
 11 28  1  0
 28 29  1  0
 29 30  1  0
 30 31  1  0
 31 32  1  0
 32 33  2  0
 33 34  1  0
 34 35  2  0
 34 36  1  0
 33 37  1  0
 32 38  1  0
 30 39  1  0
 30 40  1  0
 29 41  1  1
 28 42  1  0
 28 43  1  0
  8 44  1  0
 44 45  2  0
 45 46  1  0
 46 47  1  0
 46 48  2  0
 48 49  1  0
 49 50  2  0
 50 51  1  0
 51 52  2  0
 49 53  1  0
 48 54  1  0
 45 55  1  0
  7 56  1  0
  7 57  1  0
  5 58  1  0
  5 59  1  0
  2 60  1  0
  1 61  1  0
  1 62  1  0
  1 63  1  0
 51  6  1  0
 29  8  1  0
 35 31  1  0
 50 44  1  0
 21 12  1  0
 21 16  1  0
M  END
>  <cnnaffinities>  (16) 
[7.13551]

>  <score>  (16) 
7.13551

>  <index>  (16) 
15

>  <Smiles>  (16) 
C(N(C(=O)C(N1C([C@@]2(C(=O)N(c3c(nc(c4c(c(c(c(c34)[H])[H])[H])[H])[H])[H])C([C@@]2(C(n2c(c(c(n2)[H])[H])[H])([H])[H])[H])([H])[H])c2c(c(Cl)c(c(c2C1=O)[H])[H])[H])([H])[H])([H])[H])[H])([H])([H])[H]

>  <h>  (16) 
<NA>

>  <Training>  (16) 
True

>  <Success>  (16) 
True

>  <enamine_searched>  (16) 
False

>  <enamine_id>  (16) 
nan

$$$$

     RDKit          3D

 61 66  0  0  0  0  0  0  0  0999 V2000
   -9.8095    1.1468  -29.2165 C   0  0  0  0  0  0  0  0  0  0  0  0
   -9.6298    1.4465  -27.8132 N   0  0  0  0  0  0  0  0  0  0  0  0
   -8.6032    0.8477  -27.1447 C   0  0  0  0  0  0  0  0  0  0  0  0
   -7.7435    0.1698  -27.6808 O   0  0  0  0  0  0  0  0  0  0  0  0
   -8.6558    1.0586  -25.6277 C   0  0  0  0  0  0  0  0  0  0  0  0
   -9.3296   -0.0541  -24.9894 N   0  0  0  0  0  0  0  0  0  0  0  0
   -8.5865   -1.2257  -24.5746 C   0  0  0  0  0  0  0  0  0  0  0  0
   -8.9674   -1.6371  -23.1293 C   0  0  2  0  0  0  0  0  0  0  0  0
   -8.2887   -0.6350  -22.1437 C   0  0  0  0  0  0  0  0  0  0  0  0
   -8.4128    0.5709  -22.1227 O   0  0  0  0  0  0  0  0  0  0  0  0
   -7.4495   -1.3460  -21.3017 N   0  0  0  0  0  0  0  0  0  0  0  0
   -6.6644   -0.7788  -20.2602 C   0  0  0  0  0  0  0  0  0  0  0  0
   -6.9511   -1.0653  -18.9468 C   0  0  0  0  0  0  0  0  0  0  0  0
   -6.2774   -0.5828  -17.8720 N   0  0  0  0  0  0  0  0  0  0  0  0
   -5.2504    0.1957  -18.1120 C   0  0  0  0  0  0  0  0  0  0  0  0
   -4.7968    0.5315  -19.4189 C   0  0  0  0  0  0  0  0  0  0  0  0
   -3.6512    1.3488  -19.6145 C   0  0  0  0  0  0  0  0  0  0  0  0
   -3.1991    1.6107  -20.8787 C   0  0  0  0  0  0  0  0  0  0  0  0
   -3.8607    1.0595  -21.9974 C   0  0  0  0  0  0  0  0  0  0  0  0
   -4.9766    0.2749  -21.8320 C   0  0  0  0  0  0  0  0  0  0  0  0
   -5.4955    0.0123  -20.5345 C   0  0  0  0  0  0  0  0  0  0  0  0
   -5.4621   -0.1641  -22.6969 H   0  0  0  0  0  0  0  0  0  0  0  0
   -3.4823    1.2561  -22.9962 H   0  0  0  0  0  0  0  0  0  0  0  0
   -2.3262    2.2394  -21.0294 H   0  0  0  0  0  0  0  0  0  0  0  0
   -3.1473    1.7501  -18.7382 H   0  0  0  0  0  0  0  0  0  0  0  0
   -4.7072    0.5815  -17.2501 H   0  0  0  0  0  0  0  0  0  0  0  0
   -7.7939   -1.7116  -18.7099 H   0  0  0  0  0  0  0  0  0  0  0  0
   -7.6547   -2.7744  -21.3689 C   0  0  0  0  0  0  0  0  0  0  0  0
   -8.3639   -3.0022  -22.7108 C   0  0  2  0  0  0  0  0  0  0  0  0
   -7.4622   -3.6833  -23.7556 C   0  0  0  0  0  0  0  0  0  0  0  0
   -7.1162   -5.0307  -23.3415 N   0  0  0  0  0  0  0  0  0  0  0  0
   -5.8980   -5.4473  -23.0552 N   0  0  0  0  0  0  0  0  0  0  0  0
   -6.1278   -6.7138  -22.7350 C   0  0  0  0  0  0  0  0  0  0  0  0
   -7.4324   -7.0428  -22.8231 N   0  0  0  0  0  0  0  0  0  0  0  0
   -8.0410   -5.9561  -23.2157 N   0  0  0  0  0  0  0  0  0  0  0  0
   -5.3514   -7.4058  -22.4407 H   0  0  0  0  0  0  0  0  0  0  0  0
   -6.5314   -3.1478  -23.9369 H   0  0  0  0  0  0  0  0  0  0  0  0
   -7.9928   -3.7956  -24.7025 H   0  0  0  0  0  0  0  0  0  0  0  0
   -9.1772   -3.7164  -22.5743 H   0  0  0  0  0  0  0  0  0  0  0  0
   -8.3029   -3.0985  -20.5439 H   0  0  0  0  0  0  0  0  0  0  0  0
   -6.7004   -3.3025  -21.2812 H   0  0  0  0  0  0  0  0  0  0  0  0
  -10.4996   -1.6532  -23.0401 C   0  0  0  0  0  0  0  0  0  0  0  0
  -11.1648   -2.3639  -22.0249 C   0  0  0  0  0  0  0  0  0  0  0  0
  -12.5467   -2.3418  -21.9336 C   0  0  0  0  0  0  0  0  0  0  0  0
  -13.3470   -3.2130  -20.6563 Cl  0  0  0  0  0  0  0  0  0  0  0  0
  -13.3368   -1.6189  -22.8204 C   0  0  0  0  0  0  0  0  0  0  0  0
  -12.6962   -0.8706  -23.7870 C   0  0  0  0  0  0  0  0  0  0  0  0
  -11.3045   -0.9025  -23.9105 C   0  0  0  0  0  0  0  0  0  0  0  0
  -10.6894   -0.0386  -24.9594 C   0  0  0  0  0  0  0  0  0  0  0  0
  -11.3489    0.7137  -25.6808 O   0  0  0  0  0  0  0  0  0  0  0  0
  -13.2514   -0.2104  -24.4452 H   0  0  0  0  0  0  0  0  0  0  0  0
  -14.4187   -1.6495  -22.7259 H   0  0  0  0  0  0  0  0  0  0  0  0
  -10.6314   -2.9211  -21.2643 H   0  0  0  0  0  0  0  0  0  0  0  0
   -7.5213   -0.9905  -24.6365 H   0  0  0  0  0  0  0  0  0  0  0  0
   -8.7906   -2.0607  -25.2589 H   0  0  0  0  0  0  0  0  0  0  0  0
   -9.2168    1.9610  -25.3717 H   0  0  0  0  0  0  0  0  0  0  0  0
   -7.6479    1.1526  -25.2063 H   0  0  0  0  0  0  0  0  0  0  0  0
  -10.4629    1.6292  -27.2631 H   0  0  0  0  0  0  0  0  0  0  0  0
   -8.8888    1.3832  -29.7541 H   0  0  0  0  0  0  0  0  0  0  0  0
  -10.6246    1.7603  -29.6066 H   0  0  0  0  0  0  0  0  0  0  0  0
  -10.0406    0.0884  -29.3896 H   0  0  0  0  0  0  0  0  0  0  0  0
  1  2  1  0
  2  3  1  0
  3  4  2  0
  3  5  1  0
  5  6  1  0
  6  7  1  0
  8  7  1  6
  8  9  1  0
  9 10  2  0
  9 11  1  0
 11 12  1  0
 12 13  2  0
 13 14  1  0
 14 15  2  0
 15 16  1  0
 16 17  2  0
 17 18  1  0
 18 19  2  0
 19 20  1  0
 20 21  2  0
 20 22  1  0
 19 23  1  0
 18 24  1  0
 17 25  1  0
 15 26  1  0
 13 27  1  0
 11 28  1  0
 28 29  1  0
 29 30  1  0
 30 31  1  0
 31 32  1  0
 32 33  2  0
 33 34  1  0
 34 35  2  0
 33 36  1  0
 30 37  1  0
 30 38  1  0
 29 39  1  1
 28 40  1  0
 28 41  1  0
  8 42  1  0
 42 43  2  0
 43 44  1  0
 44 45  1  0
 44 46  2  0
 46 47  1  0
 47 48  2  0
 48 49  1  0
 49 50  2  0
 47 51  1  0
 46 52  1  0
 43 53  1  0
  7 54  1  0
  7 55  1  0
  5 56  1  0
  5 57  1  0
  2 58  1  0
  1 59  1  0
  1 60  1  0
  1 61  1  0
 49  6  1  0
 29  8  1  0
 35 31  1  0
 48 42  1  0
 21 12  1  0
 21 16  1  0
M  END
>  <cnnaffinities>  (17) 
[6.92541, 6.87216]

>  <score>  (17) 
6.92541

>  <index>  (17) 
16

>  <Smiles>  (17) 
C(N(C(=O)C(N1C([C@@]2(C(=O)N(c3c(nc(c4c(c(c(c(c34)[H])[H])[H])[H])[H])[H])C([C@@]2(C(n2nc(nn2)[H])([H])[H])[H])([H])[H])c2c(c(Cl)c(c(c2C1=O)[H])[H])[H])([H])[H])([H])[H])[H])([H])([H])[H]

>  <h>  (17) 
<NA>

>  <Training>  (17) 
True

>  <Success>  (17) 
True

>  <enamine_searched>  (17) 
False

>  <enamine_id>  (17) 
nan

$$$$

     RDKit          3D

 38 41  0  0  0  0  0  0  0  0999 V2000
   -9.3472   -4.9463  -25.6921 C   0  0  0  0  0  0  0  0  0  0  0  0
   -9.3481   -4.2003  -24.3555 C   0  0  2  0  0  0  0  0  0  0  0  0
  -10.3449   -3.0366  -24.3735 C   0  0  0  0  0  0  0  0  0  0  0  0
  -10.4131   -2.3417  -22.9985 C   0  0  0  0  0  0  0  0  0  0  0  0
   -9.0662   -2.0935  -22.4475 C   0  0  0  0  0  0  0  0  0  0  0  0
   -8.6363   -1.1881  -21.4138 C   0  0  0  0  0  0  0  0  0  0  0  0
   -9.1822   -0.2882  -20.8202 O   0  0  0  0  0  1  0  0  0  0  0  0
   -7.2804   -1.5120  -21.2020 N   0  0  0  0  0  0  0  0  0  0  0  0
   -6.5361   -0.8700  -20.1851 C   0  0  0  0  0  0  0  0  0  0  0  0
   -6.8849   -1.0594  -18.8702 C   0  0  0  0  0  0  0  0  0  0  0  0
   -6.1995   -0.5485  -17.8211 N   0  0  0  0  0  0  0  0  0  0  0  0
   -5.1628    0.2120  -18.0773 C   0  0  0  0  0  0  0  0  0  0  0  0
   -4.7268    0.5352  -19.3930 C   0  0  0  0  0  0  0  0  0  0  0  0
   -3.6008    1.3688  -19.6271 C   0  0  0  0  0  0  0  0  0  0  0  0
   -3.2220    1.6706  -20.9063 C   0  0  0  0  0  0  0  0  0  0  0  0
   -3.9528    1.1614  -22.0021 C   0  0  0  0  0  0  0  0  0  0  0  0
   -5.0449    0.3553  -21.8014 C   0  0  0  0  0  0  0  0  0  0  0  0
   -5.4449    0.0033  -20.4849 C   0  0  0  0  0  0  0  0  0  0  0  0
   -5.6001   -0.0332  -22.6482 H   0  0  0  0  0  0  0  0  0  0  0  0
   -3.6514    1.4072  -23.0156 H   0  0  0  0  0  0  0  0  0  0  0  0
   -2.3658    2.3158  -21.0910 H   0  0  0  0  0  0  0  0  0  0  0  0
   -3.0646    1.7677  -18.7709 H   0  0  0  0  0  0  0  0  0  0  0  0
   -4.6170    0.6167  -17.2246 H   0  0  0  0  0  0  0  0  0  0  0  0
   -7.7409   -1.6709  -18.5973 H   0  0  0  0  0  0  0  0  0  0  0  0
   -6.8354   -2.4554  -22.1307 C   0  0  0  0  0  0  0  0  0  0  0  0
   -5.7099   -2.8761  -22.2644 O   0  0  0  0  0  0  0  0  0  0  0  0
   -7.9717   -2.7848  -22.8625 N   0  0  0  0  0  0  0  0  0  0  0  0
   -7.9457   -3.6846  -24.0120 C   0  0  0  0  0  0  0  0  0  0  0  0
   -7.2727   -4.4992  -23.7500 H   0  0  0  0  0  0  0  0  0  0  0  0
   -7.5106   -3.1701  -24.8787 H   0  0  0  0  0  0  0  0  0  0  0  0
  -10.9672   -1.4008  -23.0755 H   0  0  0  0  0  0  0  0  0  0  0  0
  -11.0056   -2.9653  -22.3087 H   0  0  0  0  0  0  0  0  0  0  0  0
  -10.0278   -2.3159  -25.1424 H   0  0  0  0  0  0  0  0  0  0  0  0
  -11.3382   -3.4076  -24.6782 H   0  0  0  0  0  0  0  0  0  0  0  0
   -9.6537   -4.9019  -23.5659 H   0  0  0  0  0  0  0  0  0  0  0  0
  -10.3429   -5.3461  -25.9199 H   0  0  0  0  0  0  0  0  0  0  0  0
   -8.6449   -5.7886  -25.6914 H   0  0  0  0  0  0  0  0  0  0  0  0
   -9.0702   -4.2786  -26.5194 H   0  0  0  0  0  0  0  0  0  0  0  0
  1  2  1  0
  2  3  1  0
  3  4  1  0
  4  5  1  0
  5  6  2  0
  6  7  1  0
  6  8  1  0
  8  9  1  0
  9 10  2  0
 10 11  1  0
 11 12  2  0
 12 13  1  0
 13 14  2  0
 14 15  1  0
 15 16  2  0
 16 17  1  0
 17 18  2  0
 17 19  1  0
 16 20  1  0
 15 21  1  0
 14 22  1  0
 12 23  1  0
 10 24  1  0
  8 25  1  0
 25 26  2  0
 25 27  1  0
 27 28  1  0
 28 29  1  0
 28 30  1  0
  4 31  1  0
  4 32  1  0
  3 33  1  0
  3 34  1  0
  2 35  1  1
  1 36  1  0
  1 37  1  0
  1 38  1  0
 28  2  1  0
 27  5  1  0
 18  9  1  0
 18 13  1  0
M  CHG  1   7  -1
M  END
>  <cnnaffinities>  (18) 
[5.55547]

>  <score>  (18) 
5.55547

>  <index>  (18) 
17

>  <Smiles>  (18) 
C([C@@]1(C(C(c2c([O-])n(c3c(nc(c4c(c(c(c(c34)[H])[H])[H])[H])[H])[H])c(=O)n2C1([H])[H])([H])[H])([H])[H])[H])([H])([H])[H]

>  <h>  (18) 
<NA>

>  <Training>  (18) 
True

>  <Success>  (18) 
True

>  <enamine_searched>  (18) 
False

>  <enamine_id>  (18) 
nan

$$$$

     RDKit          3D

 56 61  0  0  0  0  0  0  0  0999 V2000
  -10.2338   -2.9208  -22.0351 C   0  0  0  0  0  0  0  0  0  0  0  0
   -9.1894   -1.9701  -22.6424 C   0  0  1  0  0  0  0  0  0  0  0  0
   -8.7109   -0.9436  -21.5908 C   0  0  0  0  0  0  0  0  0  0  0  0
   -7.4062   -1.4182  -21.1896 N   0  0  0  0  0  0  0  0  0  0  0  0
   -6.6217   -0.8164  -20.1747 C   0  0  0  0  0  0  0  0  0  0  0  0
   -6.9494   -1.0217  -18.8595 C   0  0  0  0  0  0  0  0  0  0  0  0
   -6.2604   -0.5210  -17.8055 N   0  0  0  0  0  0  0  0  0  0  0  0
   -5.2148    0.2253  -18.0726 C   0  0  0  0  0  0  0  0  0  0  0  0
   -4.7707    0.5300  -19.3911 C   0  0  0  0  0  0  0  0  0  0  0  0
   -3.6376    1.3557  -19.6158 C   0  0  0  0  0  0  0  0  0  0  0  0
   -3.2412    1.6571  -20.8890 C   0  0  0  0  0  0  0  0  0  0  0  0
   -3.9571    1.1422  -21.9942 C   0  0  0  0  0  0  0  0  0  0  0  0
   -5.0527    0.3366  -21.8069 C   0  0  0  0  0  0  0  0  0  0  0  0
   -5.4878    0.0020  -20.4892 C   0  0  0  0  0  0  0  0  0  0  0  0
   -5.5852   -0.0570  -22.6737 H   0  0  0  0  0  0  0  0  0  0  0  0
   -3.6364    1.3886  -23.0026 H   0  0  0  0  0  0  0  0  0  0  0  0
   -2.3799    2.2973  -21.0617 H   0  0  0  0  0  0  0  0  0  0  0  0
   -3.1053    1.7473  -18.7527 H   0  0  0  0  0  0  0  0  0  0  0  0
   -4.6564    0.6282  -17.2259 H   0  0  0  0  0  0  0  0  0  0  0  0
   -7.8068   -1.6470  -18.6126 H   0  0  0  0  0  0  0  0  0  0  0  0
   -6.8867   -2.3893  -22.0082 C   0  0  0  0  0  0  0  0  0  0  0  0
   -5.8007   -2.9066  -21.8517 O   0  0  0  0  0  0  0  0  0  0  0  0
   -7.8879   -2.6701  -23.1497 C   0  0  1  0  0  0  0  0  0  0  0  0
   -8.0785   -4.1927  -23.3817 C   0  0  0  0  0  0  0  0  0  0  0  0
   -6.8792   -4.8341  -23.9112 N   0  0  0  0  0  0  0  0  0  0  0  0
   -6.4890   -6.1947  -23.5065 C   0  0  0  0  0  0  0  0  0  0  0  0
   -5.3748   -6.2019  -22.5491 C   0  0  0  0  0  0  0  0  0  0  0  0
   -3.8675   -5.9880  -22.9178 C   0  0  0  0  0  0  0  0  0  0  0  0
   -3.9753   -6.1135  -23.0417 C   0  0  0  0  0  0  0  0  0  0  0  0
   -4.7989   -5.8753  -20.4716 N   0  0  0  0  0  0  0  0  0  0  0  0
   -5.7657   -6.1452  -21.2442 N   0  0  0  0  0  0  0  0  0  0  0  0
   -5.2041   -5.7656  -19.5368 H   0  0  0  0  0  0  0  0  0  0  0  0
   -1.5897   -5.4706  -23.0320 H   0  0  0  0  0  0  0  0  0  0  0  0
   -2.9376   -6.2537  -23.6287 H   0  0  0  0  0  0  0  0  0  0  0  0
   -7.3480   -6.6616  -23.0198 H   0  0  0  0  0  0  0  0  0  0  0  0
   -6.2688   -6.7491  -24.4289 H   0  0  0  0  0  0  0  0  0  0  0  0
   -6.1016   -4.2438  -24.8680 C   0  0  0  0  0  0  0  0  0  0  0  0
   -5.1485   -4.8234  -25.3752 O   0  0  0  0  0  0  0  0  0  0  0  0
   -6.5183   -2.8551  -25.2801 C   0  0  0  0  0  0  0  0  0  0  0  0
   -6.0414   -2.3505  -26.4913 C   0  0  0  0  0  0  0  0  0  0  0  0
   -6.3000   -1.0428  -26.8540 C   0  0  0  0  0  0  0  0  0  0  0  0
   -7.0277   -0.2533  -25.9734 C   0  0  0  0  0  0  0  0  0  0  0  0
   -7.2402    1.0349  -26.2939 F   0  0  0  0  0  0  0  0  0  0  0  0
   -7.5397   -0.7371  -24.7851 C   0  0  0  0  0  0  0  0  0  0  0  0
   -7.3329   -2.0781  -24.4449 C   0  0  0  0  0  0  0  0  0  0  0  0
   -8.0943   -0.0566  -24.1499 H   0  0  0  0  0  0  0  0  0  0  0  0
   -5.9359   -0.6108  -27.7792 H   0  0  0  0  0  0  0  0  0  0  0  0
   -5.4586   -3.0003  -27.1368 H   0  0  0  0  0  0  0  0  0  0  0  0
   -8.9003   -4.3270  -24.0978 H   0  0  0  0  0  0  0  0  0  0  0  0
   -8.3684   -4.6736  -22.4416 H   0  0  0  0  0  0  0  0  0  0  0  0
   -9.3789   -0.9165  -20.7335 H   0  0  0  0  0  0  0  0  0  0  0  0
   -8.6605    0.0766  -21.9949 H   0  0  0  0  0  0  0  0  0  0  0  0
   -9.6772   -1.4653  -23.4845 H   0  0  0  0  0  0  0  0  0  0  0  0
  -11.0976   -2.3550  -21.6716 H   0  0  0  0  0  0  0  0  0  0  0  0
   -9.8240   -3.4824  -21.1871 H   0  0  0  0  0  0  0  0  0  0  0  0
  -10.6043   -3.6382  -22.7747 H   0  0  0  0  0  0  0  0  0  0  0  0
  1  2  1  0
  2  3  1  0
  3  4  1  0
  4  5  1  0
  5  6  2  0
  6  7  1  0
  7  8  2  0
  8  9  1  0
  9 10  2  0
 10 11  1  0
 11 12  2  0
 12 13  1  0
 13 14  2  0
 13 15  1  0
 12 16  1  0
 11 17  1  0
 10 18  1  0
  8 19  1  0
  6 20  1  0
  4 21  1  0
 21 22  2  0
 21 23  1  0
 23 24  1  6
 24 25  1  0
 25 26  1  0
 26 27  1  0
 27 28  1  0
 28 29  2  0
 29 30  1  0
 30 31  1  0
 30 32  1  0
 29 33  1  0
 28 34  1  0
 26 35  1  0
 26 36  1  0
 25 37  1  0
 37 38  2  0
 37 39  1  0
 39 40  2  0
 40 41  1  0
 41 42  2  0
 42 43  1  0
 42 44  1  0
 44 45  2  0
 44 46  1  0
 41 47  1  0
 40 48  1  0
 24 49  1  0
 24 50  1  0
  3 51  1  0
  3 52  1  0
  2 53  1  6
  1 54  1  0
  1 55  1  0
  1 56  1  0
 23  2  1  0
 31 27  2  0
 45 39  1  0
 14  5  1  0
 45 23  1  0
 14  9  1  0
M  END
>  <cnnaffinities>  (19) 
[5.80422, 6.2048, 6.39153]

>  <score>  (19) 
5.80422

>  <index>  (19) 
18

>  <Smiles>  (19) 
C([C@]1(C(N(c2c(nc(c3c(c(c(c(c23)[H])[H])[H])[H])[H])[H])C(=O)[C@]21C(N(C(c1c(c(n(n1)[H])[H])[H])([H])[H])C(=O)c1c(c(c(F)c(c21)[H])[H])[H])([H])[H])([H])[H])[H])([H])([H])[H]

>  <h>  (19) 
<NA>

>  <Training>  (19) 
True

>  <Success>  (19) 
True

>  <enamine_searched>  (19) 
False

>  <enamine_id>  (19) 
nan

$$$$

     RDKit          3D

 42 45  0  0  0  0  0  0  0  0999 V2000
   -9.0958   -0.1002  -20.6635 O   0  0  0  0  0  0  0  0  0  0  0  0
   -8.6757   -0.9735  -21.3918 C   0  0  0  0  0  0  0  0  0  0  0  0
   -9.5259   -1.5257  -22.5486 C   0  0  1  0  0  0  0  0  0  0  0  0
   -9.7148   -0.4657  -23.6303 C   0  0  0  0  0  0  0  0  0  0  0  0
  -10.8919   -0.4249  -24.3801 C   0  0  0  0  0  0  0  0  0  0  0  0
  -11.0537    0.4864  -25.4165 C   0  0  0  0  0  0  0  0  0  0  0  0
  -10.0388    1.3859  -25.7196 C   0  0  0  0  0  0  0  0  0  0  0  0
  -10.2815    2.5410  -26.9852 Cl  0  0  0  0  0  0  0  0  0  0  0  0
   -8.8505    1.3369  -24.9942 C   0  0  0  0  0  0  0  0  0  0  0  0
   -7.5343    2.3997  -25.3586 Cl  0  0  0  0  0  0  0  0  0  0  0  0
   -8.6961    0.4170  -23.9637 C   0  0  0  0  0  0  0  0  0  0  0  0
   -7.7513    0.3952  -23.4305 H   0  0  0  0  0  0  0  0  0  0  0  0
  -11.9958    0.5639  -25.9448 H   0  0  0  0  0  0  0  0  0  0  0  0
  -11.7201   -1.0783  -24.1332 H   0  0  0  0  0  0  0  0  0  0  0  0
   -9.0010   -2.8460  -23.1056 C   0  0  0  0  0  0  0  0  0  0  0  0
   -7.4901   -2.8327  -23.2404 C   0  0  2  0  0  0  0  0  0  0  0  0
   -7.0005   -4.0114  -23.8393 O   0  0  0  0  0  0  0  0  0  0  0  0
   -7.2967   -4.7426  -23.2767 H   0  0  0  0  0  0  0  0  0  0  0  0
   -6.8641   -2.6139  -21.8748 C   0  0  0  0  0  0  0  0  0  0  0  0
   -7.3724   -1.4120  -21.2399 N   0  0  0  0  0  0  0  0  0  0  0  0
   -6.6067   -0.8127  -20.1889 C   0  0  0  0  0  0  0  0  0  0  0  0
   -6.9020   -1.0497  -18.8676 C   0  0  0  0  0  0  0  0  0  0  0  0
   -6.1932   -0.5557  -17.8176 N   0  0  0  0  0  0  0  0  0  0  0  0
   -5.1625    0.2161  -18.0732 C   0  0  0  0  0  0  0  0  0  0  0  0
   -4.7274    0.5302  -19.3909 C   0  0  0  0  0  0  0  0  0  0  0  0
   -3.6011    1.3630  -19.6317 C   0  0  0  0  0  0  0  0  0  0  0  0
   -3.2132    1.6507  -20.9132 C   0  0  0  0  0  0  0  0  0  0  0  0
   -3.9326    1.1128  -22.0056 C   0  0  0  0  0  0  0  0  0  0  0  0
   -5.0219    0.3021  -21.7944 C   0  0  0  0  0  0  0  0  0  0  0  0
   -5.4556   -0.0060  -20.4805 C   0  0  0  0  0  0  0  0  0  0  0  0
   -5.5702   -0.0987  -22.6402 H   0  0  0  0  0  0  0  0  0  0  0  0
   -3.6230    1.3454  -23.0180 H   0  0  0  0  0  0  0  0  0  0  0  0
   -2.3583    2.2946  -21.1033 H   0  0  0  0  0  0  0  0  0  0  0  0
   -3.0620    1.7767  -18.7831 H   0  0  0  0  0  0  0  0  0  0  0  0
   -4.6113    0.6230  -17.2218 H   0  0  0  0  0  0  0  0  0  0  0  0
   -7.7461   -1.6748  -18.5855 H   0  0  0  0  0  0  0  0  0  0  0  0
   -5.7842   -2.5072  -21.9647 H   0  0  0  0  0  0  0  0  0  0  0  0
   -7.0399   -3.4982  -21.2431 H   0  0  0  0  0  0  0  0  0  0  0  0
   -7.1976   -2.0243  -23.9145 H   0  0  0  0  0  0  0  0  0  0  0  0
   -9.3064   -3.6706  -22.4453 H   0  0  0  0  0  0  0  0  0  0  0  0
   -9.4570   -3.0425  -24.0817 H   0  0  0  0  0  0  0  0  0  0  0  0
  -10.5169   -1.7312  -22.1359 H   0  0  0  0  0  0  0  0  0  0  0  0
  1  2  2  0
  2  3  1  0
  3  4  1  0
  4  5  2  0
  5  6  1  0
  6  7  2  0
  7  8  1  0
  7  9  1  0
  9 10  1  0
  9 11  2  0
 11 12  1  0
  6 13  1  0
  5 14  1  0
  3 15  1  0
 15 16  1  0
 16 17  1  0
 17 18  1  0
 16 19  1  0
 19 20  1  0
 20 21  1  0
 21 22  2  0
 22 23  1  0
 23 24  2  0
 24 25  1  0
 25 26  2  0
 26 27  1  0
 27 28  2  0
 28 29  1  0
 29 30  2  0
 29 31  1  0
 28 32  1  0
 27 33  1  0
 26 34  1  0
 24 35  1  0
 22 36  1  0
 19 37  1  0
 19 38  1  0
 16 39  1  6
 15 40  1  0
 15 41  1  0
  3 42  1  1
 20  2  1  0
 30 21  1  0
 11  4  1  0
 30 25  1  0
M  END
>  <cnnaffinities>  (20) 
[5.98561, 5.37475]

>  <score>  (20) 
5.98561

>  <index>  (20) 
19

>  <Smiles>  (20) 
O=C1[C@@](c2c(c(c(Cl)c(Cl)c2[H])[H])[H])(C([C@](O[H])(C(N1c1c(nc(c2c(c(c(c(c12)[H])[H])[H])[H])[H])[H])([H])[H])[H])([H])[H])[H]

>  <h>  (20) 
<NA>

>  <Training>  (20) 
True

>  <Success>  (20) 
True

>  <enamine_searched>  (20) 
False

>  <enamine_id>  (20) 
nan

$$$$

     RDKit          3D

 66 71  0  0  0  0  0  0  0  0999 V2000
   -8.6391    4.4502  -23.2705 C   0  0  0  0  0  0  0  0  0  0  0  0
   -8.6744    3.4115  -24.2812 N   0  0  0  0  0  0  0  0  0  0  0  0
   -7.7325    2.4319  -24.2585 C   0  0  0  0  0  0  0  0  0  0  0  0
   -6.8364    2.4073  -23.4316 O   0  0  0  0  0  0  0  0  0  0  0  0
   -7.8854    1.3424  -25.3238 C   0  0  0  0  0  0  0  0  0  0  0  0
   -8.7145    0.2602  -24.8138 N   0  0  0  0  0  0  0  0  0  0  0  0
   -8.1293   -0.9861  -24.3491 C   0  0  0  0  0  0  0  0  0  0  0  0
   -8.8233   -1.5416  -23.0676 C   0  0  2  0  0  0  0  0  0  0  0  0
   -8.4008   -0.7328  -21.8111 C   0  0  0  0  0  0  0  0  0  0  0  0
   -8.8488    0.3155  -21.4023 O   0  0  0  0  0  0  0  0  0  0  0  0
   -7.3850   -1.4216  -21.1842 N   0  0  0  0  0  0  0  0  0  0  0  0
   -6.6061   -0.8268  -20.1632 C   0  0  0  0  0  0  0  0  0  0  0  0
   -6.9247   -1.0598  -18.8527 C   0  0  0  0  0  0  0  0  0  0  0  0
   -6.2363   -0.5652  -17.7939 N   0  0  0  0  0  0  0  0  0  0  0  0
   -5.1994    0.1930  -18.0559 C   0  0  0  0  0  0  0  0  0  0  0  0
   -4.7512    0.5056  -19.3701 C   0  0  0  0  0  0  0  0  0  0  0  0
   -3.6220    1.3346  -19.5997 C   0  0  0  0  0  0  0  0  0  0  0  0
   -3.2087    1.6086  -20.8718 C   0  0  0  0  0  0  0  0  0  0  0  0
   -3.9148    1.0780  -21.9768 C   0  0  0  0  0  0  0  0  0  0  0  0
   -5.0240    0.2895  -21.7852 C   0  0  0  0  0  0  0  0  0  0  0  0
   -5.4675   -0.0178  -20.4703 C   0  0  0  0  0  0  0  0  0  0  0  0
   -5.5783   -0.0788  -22.6468 H   0  0  0  0  0  0  0  0  0  0  0  0
   -3.5870    1.3083  -22.9853 H   0  0  0  0  0  0  0  0  0  0  0  0
   -2.3418    2.2409  -21.0463 H   0  0  0  0  0  0  0  0  0  0  0  0
   -3.1039    1.7428  -18.7363 H   0  0  0  0  0  0  0  0  0  0  0  0
   -4.6541    0.6049  -17.2061 H   0  0  0  0  0  0  0  0  0  0  0  0
   -7.7882   -1.6815  -18.6237 H   0  0  0  0  0  0  0  0  0  0  0  0
   -7.0652   -2.6990  -21.7779 C   0  0  0  0  0  0  0  0  0  0  0  0
   -8.2629   -2.9611  -22.7054 C   0  0  2  0  0  0  0  0  0  0  0  0
   -7.9219   -3.8734  -23.9017 C   0  0  0  0  0  0  0  0  0  0  0  0
   -7.5405   -5.2865  -23.5171 C   0  0  0  0  0  0  0  0  0  0  0  0
   -8.5111   -6.2900  -23.5242 C   0  0  0  0  0  0  0  0  0  0  0  0
   -8.2152   -7.5868  -23.1177 C   0  0  0  0  0  0  0  0  0  0  0  0
   -6.9210   -7.9115  -22.7247 C   0  0  0  0  0  0  0  0  0  0  0  0
   -5.9277   -6.9315  -22.7525 C   0  0  0  0  0  0  0  0  0  0  0  0
   -6.2335   -5.6306  -23.1495 C   0  0  0  0  0  0  0  0  0  0  0  0
   -5.4333   -4.8876  -23.2158 H   0  0  0  0  0  0  0  0  0  0  0  0
   -4.9023   -7.1881  -22.4912 H   0  0  0  0  0  0  0  0  0  0  0  0
   -6.6738   -8.9271  -22.4241 H   0  0  0  0  0  0  0  0  0  0  0  0
   -9.0090   -8.3308  -23.1173 H   0  0  0  0  0  0  0  0  0  0  0  0
   -9.5116   -6.0542  -23.8813 H   0  0  0  0  0  0  0  0  0  0  0  0
   -8.8033   -3.8981  -24.5589 H   0  0  0  0  0  0  0  0  0  0  0  0
   -7.0995   -3.4139  -24.4699 H   0  0  0  0  0  0  0  0  0  0  0  0
   -9.0165   -3.4800  -22.1021 H   0  0  0  0  0  0  0  0  0  0  0  0
   -6.9536   -3.4750  -21.0126 H   0  0  0  0  0  0  0  0  0  0  0  0
   -6.1113   -2.6685  -22.3277 H   0  0  0  0  0  0  0  0  0  0  0  0
  -10.3265   -1.4619  -23.2690 C   0  0  0  0  0  0  0  0  0  0  0  0
  -11.1849   -2.1700  -22.4133 C   0  0  0  0  0  0  0  0  0  0  0  0
  -12.5577   -2.0142  -22.5022 C   0  0  0  0  0  0  0  0  0  0  0  0
  -13.5758   -2.8514  -21.3526 Cl  0  0  0  0  0  0  0  0  0  0  0  0
  -13.1309   -1.1983  -23.4802 C   0  0  0  0  0  0  0  0  0  0  0  0
  -12.2931   -0.4981  -24.3291 C   0  0  0  0  0  0  0  0  0  0  0  0
  -10.9037   -0.5850  -24.2019 C   0  0  0  0  0  0  0  0  0  0  0  0
  -10.0613    0.3815  -24.9840 C   0  0  0  0  0  0  0  0  0  0  0  0
  -10.5428    1.2853  -25.6658 O   0  0  0  0  0  0  0  0  0  0  0  0
  -12.7069    0.1489  -25.0957 H   0  0  0  0  0  0  0  0  0  0  0  0
  -14.2100   -1.0907  -23.5417 H   0  0  0  0  0  0  0  0  0  0  0  0
  -10.7994   -2.8244  -21.6384 H   0  0  0  0  0  0  0  0  0  0  0  0
   -7.0622   -0.8186  -24.1544 H   0  0  0  0  0  0  0  0  0  0  0  0
   -8.2282   -1.7280  -25.1540 H   0  0  0  0  0  0  0  0  0  0  0  0
   -8.3471    1.7489  -26.2269 H   0  0  0  0  0  0  0  0  0  0  0  0
   -6.8990    0.9559  -25.5906 H   0  0  0  0  0  0  0  0  0  0  0  0
   -9.5306    3.2246  -24.7827 H   0  0  0  0  0  0  0  0  0  0  0  0
   -7.6756    4.9665  -23.2998 H   0  0  0  0  0  0  0  0  0  0  0  0
   -8.7538    4.0373  -22.2634 H   0  0  0  0  0  0  0  0  0  0  0  0
   -9.4385    5.1650  -23.4720 H   0  0  0  0  0  0  0  0  0  0  0  0
  1  2  1  0
  2  3  1  0
  3  4  2  0
  3  5  1  0
  5  6  1  0
  6  7  1  0
  8  7  1  6
  8  9  1  0
  9 10  2  0
  9 11  1  0
 11 12  1  0
 12 13  2  0
 13 14  1  0
 14 15  2  0
 15 16  1  0
 16 17  2  0
 17 18  1  0
 18 19  2  0
 19 20  1  0
 20 21  2  0
 20 22  1  0
 19 23  1  0
 18 24  1  0
 17 25  1  0
 15 26  1  0
 13 27  1  0
 11 28  1  0
 28 29  1  0
 29 30  1  0
 30 31  1  0
 31 32  2  0
 32 33  1  0
 33 34  2  0
 34 35  1  0
 35 36  2  0
 36 37  1  0
 35 38  1  0
 34 39  1  0
 33 40  1  0
 32 41  1  0
 30 42  1  0
 30 43  1  0
 29 44  1  1
 28 45  1  0
 28 46  1  0
  8 47  1  0
 47 48  2  0
 48 49  1  0
 49 50  1  0
 49 51  2  0
 51 52  1  0
 52 53  2  0
 53 54  1  0
 54 55  2  0
 52 56  1  0
 51 57  1  0
 48 58  1  0
  7 59  1  0
  7 60  1  0
  5 61  1  0
  5 62  1  0
  2 63  1  0
  1 64  1  0
  1 65  1  0
  1 66  1  0
 54  6  1  0
 29  8  1  0
 36 31  1  0
 53 47  1  0
 21 12  1  0
 21 16  1  0
M  END
>  <cnnaffinities>  (21) 
[7.24677, 7.20045]

>  <score>  (21) 
7.24677

>  <index>  (21) 
20

>  <Smiles>  (21) 
C(N(C(=O)C(N1C([C@@]2(C(=O)N(c3c(nc(c4c(c(c(c(c34)[H])[H])[H])[H])[H])[H])C([C@@]2(C(c2c(c(c(c(c2[H])[H])[H])[H])[H])([H])[H])[H])([H])[H])c2c(c(Cl)c(c(c2C1=O)[H])[H])[H])([H])[H])([H])[H])[H])([H])([H])[H]

>  <h>  (21) 
<NA>

>  <Training>  (21) 
True

>  <Success>  (21) 
True

>  <enamine_searched>  (21) 
False

>  <enamine_id>  (21) 
nan

$$$$

     RDKit          3D

 63 68  0  0  0  0  0  0  0  0999 V2000
  -10.2935   -2.7446  -22.1868 C   0  0  0  0  0  0  0  0  0  0  0  0
   -9.0938   -1.9406  -22.7017 C   0  0  1  0  0  0  0  0  0  0  0  0
   -8.6066   -0.9379  -21.6355 C   0  0  0  0  0  0  0  0  0  0  0  0
   -7.3505   -1.4822  -21.1809 N   0  0  0  0  0  0  0  0  0  0  0  0
   -6.5729   -0.8664  -20.1766 C   0  0  0  0  0  0  0  0  0  0  0  0
   -6.9147   -1.0572  -18.8640 C   0  0  0  0  0  0  0  0  0  0  0  0
   -6.2412   -0.5383  -17.8108 N   0  0  0  0  0  0  0  0  0  0  0  0
   -5.2023    0.2141  -18.0888 C   0  0  0  0  0  0  0  0  0  0  0  0
   -4.7557    0.5102  -19.4095 C   0  0  0  0  0  0  0  0  0  0  0  0
   -3.6380    1.3520  -19.6347 C   0  0  0  0  0  0  0  0  0  0  0  0
   -3.2454    1.6526  -20.9083 C   0  0  0  0  0  0  0  0  0  0  0  0
   -3.9503    1.1269  -22.0147 C   0  0  0  0  0  0  0  0  0  0  0  0
   -5.0315    0.2982  -21.8308 C   0  0  0  0  0  0  0  0  0  0  0  0
   -5.4582   -0.0343  -20.5073 C   0  0  0  0  0  0  0  0  0  0  0  0
   -5.5580   -0.0969  -22.7020 H   0  0  0  0  0  0  0  0  0  0  0  0
   -3.6302    1.3894  -23.0191 H   0  0  0  0  0  0  0  0  0  0  0  0
   -2.3971    2.3099  -21.0767 H   0  0  0  0  0  0  0  0  0  0  0  0
   -3.1215    1.7574  -18.7692 H   0  0  0  0  0  0  0  0  0  0  0  0
   -4.6534    0.6383  -17.2486 H   0  0  0  0  0  0  0  0  0  0  0  0
   -7.7737   -1.6848  -18.6299 H   0  0  0  0  0  0  0  0  0  0  0  0
   -6.8554   -2.5253  -21.9252 C   0  0  0  0  0  0  0  0  0  0  0  0
   -5.8248   -3.1117  -21.6775 O   0  0  0  0  0  0  0  0  0  0  0  0
   -7.8314   -2.7816  -23.0899 C   0  0  1  0  0  0  0  0  0  0  0  0
   -8.1379   -4.2901  -23.2030 C   0  0  0  0  0  0  0  0  0  0  0  0
   -7.0205   -5.0427  -23.7494 N   0  0  0  0  0  0  0  0  0  0  0  0
   -6.6812   -6.3286  -23.1694 C   0  0  0  0  0  0  0  0  0  0  0  0
   -7.7317   -7.3872  -23.4961 C   0  0  0  0  0  0  0  0  0  0  0  0
   -8.4390   -7.8975  -22.6434 O   0  0  0  0  0  0  0  0  0  0  0  0
   -7.8442   -7.6571  -24.8359 N   0  0  0  0  0  0  0  0  0  0  0  0
   -9.1564   -7.9809  -25.3725 C   0  0  0  0  0  0  0  0  0  0  0  0
  -10.0007   -6.7525  -25.6428 C   0  0  0  0  0  0  0  0  0  0  0  0
   -9.8678   -5.9025  -26.8750 C   0  0  0  0  0  0  0  0  0  0  0  0
  -11.0556   -6.8064  -26.6961 C   0  0  0  0  0  0  0  0  0  0  0  0
  -12.0407   -6.3774  -26.5100 H   0  0  0  0  0  0  0  0  0  0  0  0
  -11.0583   -7.7184  -27.2813 H   0  0  0  0  0  0  0  0  0  0  0  0
  -10.0720   -4.8387  -26.7750 H   0  0  0  0  0  0  0  0  0  0  0  0
   -9.1513   -6.1440  -27.6549 H   0  0  0  0  0  0  0  0  0  0  0  0
  -10.2322   -6.1709  -24.7462 H   0  0  0  0  0  0  0  0  0  0  0  0
   -9.0362   -8.5631  -26.2917 H   0  0  0  0  0  0  0  0  0  0  0  0
   -9.6593   -8.6289  -24.6514 H   0  0  0  0  0  0  0  0  0  0  0  0
   -7.2212   -7.1598  -25.4593 H   0  0  0  0  0  0  0  0  0  0  0  0
   -6.5995   -6.2114  -22.0878 H   0  0  0  0  0  0  0  0  0  0  0  0
   -5.7141   -6.6221  -23.5858 H   0  0  0  0  0  0  0  0  0  0  0  0
   -6.3826   -4.6535  -24.8857 C   0  0  0  0  0  0  0  0  0  0  0  0
   -5.7079   -5.4369  -25.5518 O   0  0  0  0  0  0  0  0  0  0  0  0
   -6.5326   -3.2155  -25.2485 C   0  0  0  0  0  0  0  0  0  0  0  0
   -5.9499   -2.7957  -26.4422 C   0  0  0  0  0  0  0  0  0  0  0  0
   -6.0114   -1.4753  -26.8292 C   0  0  0  0  0  0  0  0  0  0  0  0
   -6.6573   -0.5868  -25.9792 C   0  0  0  0  0  0  0  0  0  0  0  0
   -6.7291    0.7025  -26.3508 F   0  0  0  0  0  0  0  0  0  0  0  0
   -7.2387   -0.9736  -24.7849 C   0  0  0  0  0  0  0  0  0  0  0  0
   -7.2039   -2.3209  -24.4043 C   0  0  0  0  0  0  0  0  0  0  0  0
   -7.7339   -0.2163  -24.1856 H   0  0  0  0  0  0  0  0  0  0  0  0
   -5.5717   -1.1227  -27.7554 H   0  0  0  0  0  0  0  0  0  0  0  0
   -5.4480   -3.5462  -27.0403 H   0  0  0  0  0  0  0  0  0  0  0  0
   -9.0311   -4.4019  -23.8343 H   0  0  0  0  0  0  0  0  0  0  0  0
   -8.3756   -4.7078  -22.2262 H   0  0  0  0  0  0  0  0  0  0  0  0
   -9.3010   -0.8536  -20.7974 H   0  0  0  0  0  0  0  0  0  0  0  0
   -8.4797    0.0769  -22.0390 H   0  0  0  0  0  0  0  0  0  0  0  0
   -9.4414   -1.4101  -23.5948 H   0  0  0  0  0  0  0  0  0  0  0  0
  -10.0358   -3.3368  -21.3026 H   0  0  0  0  0  0  0  0  0  0  0  0
  -11.1095   -2.0693  -21.9142 H   0  0  0  0  0  0  0  0  0  0  0  0
  -10.6794   -3.4199  -22.9553 H   0  0  0  0  0  0  0  0  0  0  0  0
  1  2  1  0
  2  3  1  0
  3  4  1  0
  4  5  1  0
  5  6  2  0
  6  7  1  0
  7  8  2  0
  8  9  1  0
  9 10  2  0
 10 11  1  0
 11 12  2  0
 12 13  1  0
 13 14  2  0
 13 15  1  0
 12 16  1  0
 11 17  1  0
 10 18  1  0
  8 19  1  0
  6 20  1  0
  4 21  1  0
 21 22  2  0
 21 23  1  0
 23 24  1  6
 24 25  1  0
 25 26  1  0
 26 27  1  0
 27 28  2  0
 27 29  1  0
 29 30  1  0
 30 31  1  0
 31 32  1  0
 32 33  1  0
 33 34  1  0
 33 35  1  0
 32 36  1  0
 32 37  1  0
 31 38  1  0
 30 39  1  0
 30 40  1  0
 29 41  1  0
 26 42  1  0
 26 43  1  0
 25 44  1  0
 44 45  2  0
 44 46  1  0
 46 47  2  0
 47 48  1  0
 48 49  2  0
 49 50  1  0
 49 51  1  0
 51 52  2  0
 51 53  1  0
 48 54  1  0
 47 55  1  0
 24 56  1  0
 24 57  1  0
  3 58  1  0
  3 59  1  0
  2 60  1  6
  1 61  1  0
  1 62  1  0
  1 63  1  0
 23  2  1  0
 33 31  1  0
 52 46  1  0
 14  5  1  0
 52 23  1  0
 14  9  1  0
M  END
>  <cnnaffinities>  (22) 
[7.01857, 6.82302]

>  <score>  (22) 
7.01857

>  <index>  (22) 
21

>  <Smiles>  (22) 
C([C@]1(C(N(c2c(nc(c3c(c(c(c(c23)[H])[H])[H])[H])[H])[H])C(=O)[C@]21C(N(C(C(=O)N(C(C1(C(C1([H])[H])([H])[H])[H])([H])[H])[H])([H])[H])C(=O)c1c(c(c(F)c(c21)[H])[H])[H])([H])[H])([H])[H])[H])([H])([H])[H]

>  <h>  (22) 
<NA>

>  <Training>  (22) 
True

>  <Success>  (22) 
True

>  <enamine_searched>  (22) 
False

>  <enamine_id>  (22) 
nan

$$$$

     RDKit          3D

 68 73  0  0  0  0  0  0  0  0999 V2000
  -10.4152    1.6863  -27.0404 C   0  0  0  0  0  0  0  0  0  0  0  0
   -9.7474    0.5516  -26.4404 N   0  0  0  0  0  0  0  0  0  0  0  0
  -10.1051   -0.7145  -26.7921 C   0  0  0  0  0  0  0  0  0  0  0  0
  -10.9653   -0.9324  -27.6280 O   0  0  0  0  0  0  0  0  0  0  0  0
   -9.3122   -1.8334  -26.0943 C   0  0  0  0  0  0  0  0  0  0  0  0
   -9.6351   -2.0164  -24.6849 N   0  0  0  0  0  0  0  0  0  0  0  0
   -8.8591   -1.3037  -23.6651 C   0  0  0  0  0  0  0  0  0  0  0  0
   -8.7618   -2.0393  -22.2868 C   0  0  2  0  0  0  0  0  0  0  0  0
   -8.1534   -1.0653  -21.2794 C   0  0  0  0  0  0  0  0  0  0  0  0
   -8.7354   -0.1448  -20.7420 O   0  0  0  0  0  0  0  0  0  0  0  0
   -6.8284   -1.3894  -21.0909 N   0  0  0  0  0  0  0  0  0  0  0  0
   -6.0924   -0.8131  -20.0266 C   0  0  0  0  0  0  0  0  0  0  0  0
   -6.4492   -1.0844  -18.7283 C   0  0  0  0  0  0  0  0  0  0  0  0
   -5.8395   -0.5523  -17.6430 N   0  0  0  0  0  0  0  0  0  0  0  0
   -4.8532    0.2854  -17.8594 C   0  0  0  0  0  0  0  0  0  0  0  0
   -4.3592    0.6252  -19.1513 C   0  0  0  0  0  0  0  0  0  0  0  0
   -3.2891    1.5414  -19.3280 C   0  0  0  0  0  0  0  0  0  0  0  0
   -2.8352    1.8393  -20.5832 C   0  0  0  0  0  0  0  0  0  0  0  0
   -3.4175    1.2264  -21.7158 C   0  0  0  0  0  0  0  0  0  0  0  0
   -4.4576    0.3386  -21.5710 C   0  0  0  0  0  0  0  0  0  0  0  0
   -4.9693    0.0339  -20.2812 C   0  0  0  0  0  0  0  0  0  0  0  0
   -4.9012   -0.1240  -22.4478 H   0  0  0  0  0  0  0  0  0  0  0  0
   -3.0502    1.4712  -22.7089 H   0  0  0  0  0  0  0  0  0  0  0  0
   -2.0294    2.5559  -20.7200 H   0  0  0  0  0  0  0  0  0  0  0  0
   -2.8556    2.0032  -18.4440 H   0  0  0  0  0  0  0  0  0  0  0  0
   -4.3864    0.7399  -16.9851 H   0  0  0  0  0  0  0  0  0  0  0  0
   -7.2695   -1.7684  -18.5205 H   0  0  0  0  0  0  0  0  0  0  0  0
   -6.4198   -2.5866  -21.8015 C   0  0  0  0  0  0  0  0  0  0  0  0
   -7.7388   -3.2245  -22.2711 C   0  0  2  0  0  0  0  0  0  0  0  0
   -7.4877   -4.0114  -23.5582 C   0  0  0  0  0  0  0  0  0  0  0  0
   -8.5786   -4.8728  -23.9228 N   0  0  0  0  0  0  0  0  0  0  0  0
   -8.7291   -5.3729  -25.1916 C   0  0  0  0  0  0  0  0  0  0  0  0
   -9.9289   -6.0125  -25.5539 C   0  0  0  0  0  0  0  0  0  0  0  0
  -10.0962   -6.5224  -26.8331 C   0  0  0  0  0  0  0  0  0  0  0  0
   -9.0933   -6.4091  -27.7912 C   0  0  0  0  0  0  0  0  0  0  0  0
   -7.9021   -5.7844  -27.4379 C   0  0  0  0  0  0  0  0  0  0  0  0
   -7.7107   -5.2750  -26.1587 C   0  0  0  0  0  0  0  0  0  0  0  0
   -6.7581   -4.8134  -25.9099 H   0  0  0  0  0  0  0  0  0  0  0  0
   -7.1024   -5.6882  -28.1693 H   0  0  0  0  0  0  0  0  0  0  0  0
   -9.2427   -6.8024  -28.7924 H   0  0  0  0  0  0  0  0  0  0  0  0
  -11.0323   -7.0151  -27.0883 H   0  0  0  0  0  0  0  0  0  0  0  0
  -10.7504   -6.0657  -24.8458 H   0  0  0  0  0  0  0  0  0  0  0  0
   -9.3538   -4.9978  -23.2949 H   0  0  0  0  0  0  0  0  0  0  0  0
   -6.5705   -4.6054  -23.4299 H   0  0  0  0  0  0  0  0  0  0  0  0
   -7.2850   -3.3140  -24.3837 H   0  0  0  0  0  0  0  0  0  0  0  0
   -8.0983   -3.9201  -21.5050 H   0  0  0  0  0  0  0  0  0  0  0  0
   -5.8458   -3.2493  -21.1449 H   0  0  0  0  0  0  0  0  0  0  0  0
   -5.7859   -2.3354  -22.6676 H   0  0  0  0  0  0  0  0  0  0  0  0
  -10.1508   -2.4106  -21.7857 C   0  0  0  0  0  0  0  0  0  0  0  0
  -10.6647   -3.6183  -22.1093 C   0  0  0  0  0  0  0  0  0  0  0  0
  -13.1522   -2.6165  -21.5946 C   0  0  0  0  0  0  0  0  0  0  0  0
  -14.3705   -4.7205  -21.2779 Cl  0  0  0  0  0  0  0  0  0  0  0  0
  -13.3047   -2.8359  -21.5823 C   0  0  0  0  0  0  0  0  0  0  0  0
  -12.7204   -2.5365  -22.8895 C   0  0  0  0  0  0  0  0  0  0  0  0
  -11.2497   -2.8384  -23.0381 C   0  0  0  0  0  0  0  0  0  0  0  0
  -10.7735   -2.7555  -24.4202 C   0  0  0  0  0  0  0  0  0  0  0  0
  -11.3543   -3.3493  -25.3117 O   0  0  0  0  0  0  0  0  0  0  0  0
  -13.2075   -2.0389  -23.7443 H   0  0  0  0  0  0  0  0  0  0  0  0
  -13.5160   -2.3251  -20.4648 H   0  0  0  0  0  0  0  0  0  0  0  0
  -10.7254   -1.8402  -21.0384 H   0  0  0  0  0  0  0  0  0  0  0  0
   -7.8372   -1.1505  -24.0435 H   0  0  0  0  0  0  0  0  0  0  0  0
   -9.2755   -0.3066  -23.4670 H   0  0  0  0  0  0  0  0  0  0  0  0
   -8.2390   -1.6151  -26.1772 H   0  0  0  0  0  0  0  0  0  0  0  0
   -9.5149   -2.7634  -26.6309 H   0  0  0  0  0  0  0  0  0  0  0  0
   -9.0671    0.7126  -25.7143 H   0  0  0  0  0  0  0  0  0  0  0  0
  -11.4255    1.8211  -26.6376 H   0  0  0  0  0  0  0  0  0  0  0  0
   -9.8311    2.5877  -26.8493 H   0  0  0  0  0  0  0  0  0  0  0  0
  -10.4930    1.5328  -28.1194 H   0  0  0  0  0  0  0  0  0  0  0  0
  1  2  1  0
  2  3  1  0
  3  4  2  0
  3  5  1  0
  5  6  1  0
  6  7  1  0
  8  7  1  6
  8  9  1  0
  9 10  2  0
  9 11  1  0
 11 12  1  0
 12 13  2  0
 13 14  1  0
 14 15  2  0
 15 16  1  0
 16 17  2  0
 17 18  1  0
 18 19  2  0
 19 20  1  0
 20 21  2  0
 20 22  1  0
 19 23  1  0
 18 24  1  0
 17 25  1  0
 15 26  1  0
 13 27  1  0
 11 28  1  0
 28 29  1  0
 29 30  1  0
 30 31  1  0
 31 32  1  0
 32 33  2  0
 33 34  1  0
 34 35  2  0
 35 36  1  0
 36 37  2  0
 37 38  1  0
 36 39  1  0
 35 40  1  0
 34 41  1  0
 33 42  1  0
 31 43  1  0
 30 44  1  0
 30 45  1  0
 29 46  1  1
 28 47  1  0
 28 48  1  0
  8 49  1  0
 49 50  2  0
 50 51  1  0
 51 52  1  0
 51 53  2  0
 53 54  1  0
 54 55  2  0
 55 56  1  0
 56 57  2  0
 54 58  1  0
 53 59  1  0
 50 60  1  0
  7 61  1  0
  7 62  1  0
  5 63  1  0
  5 64  1  0
  2 65  1  0
  1 66  1  0
  1 67  1  0
  1 68  1  0
 56  6  1  0
 29  8  1  0
 37 32  1  0
 55 49  1  0
 21 12  1  0
 21 16  1  0
M  END
>  <cnnaffinities>  (23) 
[7.30395]

>  <score>  (23) 
7.30395

>  <index>  (23) 
23

>  <Smiles>  (23) 
C(N(C(=O)C(N1C([C@@]2(C(=O)N(c3c(nc(c4c(c(c(c(c34)[H])[H])[H])[H])[H])[H])C([C@@]2(C(N(c2c(c(c(c(c2[H])[H])[H])[H])[H])[H])([H])[H])[H])([H])[H])c2c(c(Cl)c(c(c2C1=O)[H])[H])[H])([H])[H])([H])[H])[H])([H])([H])[H]

>  <h>  (23) 
<NA>

>  <Training>  (23) 
True

>  <Success>  (23) 
True

>  <enamine_searched>  (23) 
False

>  <enamine_id>  (23) 
nan

$$$$

     RDKit          3D

 65 70  0  0  0  0  0  0  0  0999 V2000
   -6.1632   -8.0306  -25.2623 O   0  0  0  0  0  0  0  0  0  0  0  0
   -6.0296   -7.3523  -24.2546 C   0  0  0  0  0  0  0  0  0  0  0  0
   -7.1861   -6.5946  -23.5933 C   0  0  0  0  0  0  0  0  0  0  0  0
   -7.0859   -5.1011  -23.7860 N   0  0  1  0  0  4  0  0  0  0  0  0
   -7.2677   -4.7531  -25.2788 C   0  0  0  0  0  0  0  0  0  0  0  0
   -7.2098   -3.2682  -25.5140 C   0  0  0  0  0  0  0  0  0  0  0  0
   -6.8452   -2.7854  -26.7687 C   0  0  0  0  0  0  0  0  0  0  0  0
   -6.7767   -1.4254  -27.0357 C   0  0  0  0  0  0  0  0  0  0  0  0
   -7.0854   -0.5320  -26.0156 C   0  0  0  0  0  0  0  0  0  0  0  0
   -6.9901    1.1820  -26.3170 Cl  0  0  0  0  0  0  0  0  0  0  0  0
   -7.4674   -0.9865  -24.7632 C   0  0  0  0  0  0  0  0  0  0  0  0
   -7.5451   -2.3612  -24.5054 C   0  0  0  0  0  0  0  0  0  0  0  0
   -7.9442   -2.8151  -23.1131 C   0  0  2  0  0  0  0  0  0  0  0  0
   -9.1881   -2.0942  -22.5687 C   0  0  0  0  0  0  0  0  0  0  0  0
   -8.7209   -1.1434  -21.4591 C   0  0  0  0  0  0  0  0  0  0  0  0
   -7.3213   -1.4877  -21.2382 N   0  0  0  0  0  0  0  0  0  0  0  0
   -6.5535   -0.8870  -20.1971 C   0  0  0  0  0  0  0  0  0  0  0  0
   -6.8942   -1.0639  -18.8768 C   0  0  0  0  0  0  0  0  0  0  0  0
   -6.2165   -0.5400  -17.8227 N   0  0  0  0  0  0  0  0  0  0  0  0
   -5.1771    0.2139  -18.0874 C   0  0  0  0  0  0  0  0  0  0  0  0
   -4.7348    0.5214  -19.4034 C   0  0  0  0  0  0  0  0  0  0  0  0
   -3.6135    1.3635  -19.6341 C   0  0  0  0  0  0  0  0  0  0  0  0
   -3.2270    1.6684  -20.9086 C   0  0  0  0  0  0  0  0  0  0  0  0
   -3.9501    1.1540  -22.0083 C   0  0  0  0  0  0  0  0  0  0  0  0
   -5.0336    0.3349  -21.8156 C   0  0  0  0  0  0  0  0  0  0  0  0
   -5.4464   -0.0244  -20.5010 C   0  0  0  0  0  0  0  0  0  0  0  0
   -5.5788   -0.0474  -22.6773 H   0  0  0  0  0  0  0  0  0  0  0  0
   -3.6411    1.4035  -23.0186 H   0  0  0  0  0  0  0  0  0  0  0  0
   -2.3707    2.3141  -21.0860 H   0  0  0  0  0  0  0  0  0  0  0  0
   -3.0834    1.7622  -18.7713 H   0  0  0  0  0  0  0  0  0  0  0  0
   -4.6284    0.6195  -17.2352 H   0  0  0  0  0  0  0  0  0  0  0  0
   -7.7497   -1.6800  -18.6008 H   0  0  0  0  0  0  0  0  0  0  0  0
   -6.8398   -2.4382  -22.1169 C   0  0  0  0  0  0  0  0  0  0  0  0
   -5.7442   -2.9699  -22.1249 O   0  0  0  0  0  0  0  0  0  0  0  0
   -9.2971   -1.3408  -20.5614 H   0  0  0  0  0  0  0  0  0  0  0  0
   -8.8490   -0.0799  -21.7135 H   0  0  0  0  0  0  0  0  0  0  0  0
   -9.8630   -2.8387  -22.1357 H   0  0  0  0  0  0  0  0  0  0  0  0
   -9.7507   -1.5833  -23.3545 H   0  0  0  0  0  0  0  0  0  0  0  0
   -8.1496   -4.3366  -23.0172 C   0  0  0  0  0  0  0  0  0  0  0  0
   -8.1295   -4.6157  -21.9613 H   0  0  0  0  0  0  0  0  0  0  0  0
   -9.1300   -4.5931  -23.4294 H   0  0  0  0  0  0  0  0  0  0  0  0
   -7.7010   -0.2564  -23.9896 H   0  0  0  0  0  0  0  0  0  0  0  0
   -6.4838   -1.0505  -28.0117 H   0  0  0  0  0  0  0  0  0  0  0  0
   -6.5986   -3.4915  -27.5561 H   0  0  0  0  0  0  0  0  0  0  0  0
   -6.5075   -5.2721  -25.8617 H   0  0  0  0  0  0  0  0  0  0  0  0
   -8.2373   -5.1560  -25.6011 H   0  0  0  0  0  0  0  0  0  0  0  0
   -6.1652   -4.7193  -23.4585 H   0  0  0  0  0  0  0  0  0  0  0  0
   -7.2466   -6.8050  -22.5199 H   0  0  0  0  0  0  0  0  0  0  0  0
   -8.1079   -6.9636  -24.0503 H   0  0  0  0  0  0  0  0  0  0  0  0
   -4.8268   -7.1916  -23.6463 N   0  0  0  0  0  0  0  0  0  0  0  0
   -3.6677   -7.8678  -24.2079 C   0  0  0  0  0  0  0  0  0  0  0  0
   -2.4043   -7.5804  -23.4071 C   0  0  1  0  0  0  0  0  0  0  0  0
   -1.0883   -8.0432  -24.0960 C   0  0  0  0  0  0  0  0  0  0  0  0
   -0.6185   -6.5771  -24.2034 C   0  0  1  0  0  0  0  0  0  0  0  0
   -0.5027   -6.1211  -25.5098 F   0  0  0  0  0  0  0  0  0  0  0  0
   -1.9111   -6.1094  -23.5049 C   0  0  0  0  0  0  0  0  0  0  0  0
   -1.7826   -5.5682  -22.5590 H   0  0  0  0  0  0  0  0  0  0  0  0
   -2.5445   -5.5170  -24.1709 H   0  0  0  0  0  0  0  0  0  0  0  0
    0.3323   -6.3279  -23.7170 H   0  0  0  0  0  0  0  0  0  0  0  0
   -1.2209   -8.5289  -25.0699 H   0  0  0  0  0  0  0  0  0  0  0  0
   -0.4524   -8.6950  -23.4895 H   0  0  0  0  0  0  0  0  0  0  0  0
   -2.5379   -7.9491  -22.3775 H   0  0  0  0  0  0  0  0  0  0  0  0
   -3.5551   -7.5235  -25.2480 H   0  0  0  0  0  0  0  0  0  0  0  0
   -3.8688   -8.9472  -24.2640 H   0  0  0  0  0  0  0  0  0  0  0  0
   -4.7912   -6.7078  -22.7622 H   0  0  0  0  0  0  0  0  0  0  0  0
  1  2  2  0
  2  3  1  0
  3  4  1  0
  4  5  1  0
  5  6  1  0
  6  7  2  0
  7  8  1  0
  8  9  2  0
  9 10  1  0
  9 11  1  0
 11 12  2  0
 12 13  1  0
 13 14  1  1
 14 15  1  0
 15 16  1  0
 16 17  1  0
 17 18  2  0
 18 19  1  0
 19 20  2  0
 20 21  1  0
 21 22  2  0
 22 23  1  0
 23 24  2  0
 24 25  1  0
 25 26  2  0
 25 27  1  0
 24 28  1  0
 23 29  1  0
 22 30  1  0
 20 31  1  0
 18 32  1  0
 16 33  1  0
 33 34  2  0
 15 35  1  0
 15 36  1  0
 14 37  1  0
 14 38  1  0
 13 39  1  0
 39 40  1  0
 39 41  1  0
 11 42  1  0
  8 43  1  0
  7 44  1  0
  5 45  1  0
  5 46  1  0
  4 47  1  1
  3 48  1  0
  3 49  1  0
  2 50  1  0
 50 51  1  0
 51 52  1  0
 52 53  1  0
 53 54  1  0
 54 55  1  0
 54 56  1  0
 56 57  1  0
 56 58  1  0
 54 59  1  1
 53 60  1  0
 53 61  1  0
 52 62  1  1
 51 63  1  0
 51 64  1  0
 50 65  1  0
 39  4  1  0
 56 52  1  0
 12  6  1  0
 33 13  1  0
 26 17  1  0
 26 21  1  0
M  CHG  1   4   1
M  END
>  <cnnaffinities>  (24) 
[6.5381, 6.23262, 6.38328]

>  <score>  (24) 
6.5381

>  <index>  (24) 
24

>  <Smiles>  (24) 
O=C(C([N@+]1(C(c2c(c(c(Cl)c(c2[C@@]2(C(C(N(c3c(nc(c4c(c(c(c(c34)[H])[H])[H])[H])[H])[H])C2=O)([H])[H])([H])[H])C1([H])[H])[H])[H])[H])([H])[H])[H])([H])[H])N(C([C@]1(C([C@@](F)(C1([H])[H])[H])([H])[H])[H])([H])[H])[H]

>  <h>  (24) 
<NA>

>  <Training>  (24) 
True

>  <Success>  (24) 
True

>  <enamine_searched>  (24) 
False

>  <enamine_id>  (24) 
nan

$$$$

     RDKit          3D

 70 75  0  0  0  0  0  0  0  0999 V2000
   -8.1261   -6.6786  -24.3896 O   0  0  0  0  0  0  0  0  0  0  0  0
   -8.0818   -6.0582  -23.3451 C   0  0  0  0  0  0  0  0  0  0  0  0
   -9.1609   -5.0758  -22.9085 C   0  0  0  0  0  0  0  0  0  0  0  0
   -8.7458   -3.6687  -23.1635 N   0  0  1  0  0  4  0  0  0  0  0  0
   -8.3997   -3.4213  -24.6423 C   0  0  0  0  0  0  0  0  0  0  0  0
   -8.0071   -1.9835  -24.8701 C   0  0  0  0  0  0  0  0  0  0  0  0
   -7.2082   -1.6001  -25.9523 C   0  0  0  0  0  0  0  0  0  0  0  0
   -6.8967   -0.2636  -26.1831 C   0  0  0  0  0  0  0  0  0  0  0  0
   -7.3691    0.6994  -25.2959 C   0  0  0  0  0  0  0  0  0  0  0  0
   -6.9916    2.3838  -25.5375 Cl  0  0  0  0  0  0  0  0  0  0  0  0
   -8.1478    0.3368  -24.2116 C   0  0  0  0  0  0  0  0  0  0  0  0
   -8.4803   -1.0016  -24.0074 C   0  0  0  0  0  0  0  0  0  0  0  0
   -9.3400   -1.2816  -22.8043 C   0  0  2  0  0  0  0  0  0  0  0  0
   -8.6308   -0.8405  -21.5205 C   0  0  0  0  0  0  0  0  0  0  0  0
   -9.0860   -0.0197  -20.7461 O   0  0  0  0  0  0  0  0  0  0  0  0
   -7.4246   -1.4535  -21.2487 N   0  0  0  0  0  0  0  0  0  0  0  0
   -6.6132   -0.9160  -20.2179 C   0  0  0  0  0  0  0  0  0  0  0  0
   -6.9461   -1.1305  -18.9089 C   0  0  0  0  0  0  0  0  0  0  0  0
   -6.2632   -0.6230  -17.8539 N   0  0  0  0  0  0  0  0  0  0  0  0
   -5.2295    0.1430  -18.1103 C   0  0  0  0  0  0  0  0  0  0  0  0
   -4.7845    0.4581  -19.4240 C   0  0  0  0  0  0  0  0  0  0  0  0
   -3.6705    1.3082  -19.6463 C   0  0  0  0  0  0  0  0  0  0  0  0
   -3.2870    1.6257  -20.9202 C   0  0  0  0  0  0  0  0  0  0  0  0
   -3.9989    1.1007  -22.0287 C   0  0  0  0  0  0  0  0  0  0  0  0
   -5.0720    0.2642  -21.8380 C   0  0  0  0  0  0  0  0  0  0  0  0
   -5.4879   -0.0823  -20.5226 C   0  0  0  0  0  0  0  0  0  0  0  0
   -5.6116   -0.1305  -22.6951 H   0  0  0  0  0  0  0  0  0  0  0  0
   -3.6943    1.3698  -23.0388 H   0  0  0  0  0  0  0  0  0  0  0  0
   -2.4454    2.2943  -21.0919 H   0  0  0  0  0  0  0  0  0  0  0  0
   -3.1551    1.7151  -18.7788 H   0  0  0  0  0  0  0  0  0  0  0  0
   -4.6862    0.5548  -17.2573 H   0  0  0  0  0  0  0  0  0  0  0  0
   -7.8128   -1.7400  -18.6624 H   0  0  0  0  0  0  0  0  0  0  0  0
   -6.9514   -1.9126  -22.0087 H   0  0  0  0  0  0  0  0  0  0  0  0
   -9.8188   -2.7220  -22.7019 C   0  0  0  0  0  0  0  0  0  0  0  0
  -10.6992   -2.8969  -23.3313 H   0  0  0  0  0  0  0  0  0  0  0  0
  -10.0779   -2.9574  -21.6674 H   0  0  0  0  0  0  0  0  0  0  0  0
  -10.2188   -0.6491  -22.8995 H   0  0  0  0  0  0  0  0  0  0  0  0
   -8.5367    1.0889  -23.5309 H   0  0  0  0  0  0  0  0  0  0  0  0
   -6.2784    0.0351  -27.0258 H   0  0  0  0  0  0  0  0  0  0  0  0
   -6.8382   -2.3536  -26.6436 H   0  0  0  0  0  0  0  0  0  0  0  0
   -7.6073   -4.1075  -24.9357 H   0  0  0  0  0  0  0  0  0  0  0  0
   -9.2828   -3.6917  -25.2283 H   0  0  0  0  0  0  0  0  0  0  0  0
   -7.8838   -3.4889  -22.6098 H   0  0  0  0  0  0  0  0  0  0  0  0
  -10.0811   -5.3168  -23.4453 H   0  0  0  0  0  0  0  0  0  0  0  0
   -9.3618   -5.1786  -21.8359 H   0  0  0  0  0  0  0  0  0  0  0  0
   -7.0476   -6.1419  -22.4557 N   0  0  0  0  0  0  0  0  0  0  0  0
   -5.8216   -6.7522  -22.7610 C   0  0  0  0  0  0  0  0  0  0  0  0
   -5.0785   -7.3490  -21.7461 C   0  0  0  0  0  0  0  0  0  0  0  0
   -3.8432   -7.8952  -22.0240 C   0  0  0  0  0  0  0  0  0  0  0  0
   -3.3274   -7.8386  -23.3174 C   0  0  0  0  0  0  0  0  0  0  0  0
   -2.0800   -8.4140  -23.6183 N   0  0  0  0  0  0  0  0  0  0  0  0
   -1.8891   -8.8444  -24.9919 C   0  0  0  0  0  0  0  0  0  0  0  0
   -0.6458   -9.7017  -25.1431 C   0  0  0  0  0  0  0  0  0  0  0  0
    0.4475   -9.1796  -24.4280 O   0  0  0  0  0  0  0  0  0  0  0  0
    0.1906   -9.1250  -23.0471 C   0  0  0  0  0  0  0  0  0  0  0  0
   -1.0587   -8.3338  -22.7000 C   0  0  0  0  0  0  0  0  0  0  0  0
   -1.1373   -7.6983  -21.6668 O   0  0  0  0  0  0  0  0  0  0  0  0
    1.0277   -8.6208  -22.5669 H   0  0  0  0  0  0  0  0  0  0  0  0
    0.1123  -10.1344  -22.6157 H   0  0  0  0  0  0  0  0  0  0  0  0
   -0.3555   -9.7465  -26.1955 H   0  0  0  0  0  0  0  0  0  0  0  0
   -0.8570  -10.7336  -24.8362 H   0  0  0  0  0  0  0  0  0  0  0  0
   -1.8316   -7.9617  -25.6381 H   0  0  0  0  0  0  0  0  0  0  0  0
   -2.7632   -9.4313  -25.2942 H   0  0  0  0  0  0  0  0  0  0  0  0
   -4.0900   -7.2672  -24.3353 C   0  0  0  0  0  0  0  0  0  0  0  0
   -5.3311   -6.7277  -24.0642 C   0  0  0  0  0  0  0  0  0  0  0  0
   -5.9190   -6.3005  -24.8666 H   0  0  0  0  0  0  0  0  0  0  0  0
   -3.7381   -7.2325  -25.3613 H   0  0  0  0  0  0  0  0  0  0  0  0
   -3.3065   -8.4147  -21.2392 H   0  0  0  0  0  0  0  0  0  0  0  0
   -5.4646   -7.3826  -20.7294 H   0  0  0  0  0  0  0  0  0  0  0  0
   -7.1395   -5.6982  -21.5509 H   0  0  0  0  0  0  0  0  0  0  0  0
  1  2  2  0
  2  3  1  0
  3  4  1  0
  4  5  1  0
  5  6  1  0
  6  7  2  0
  7  8  1  0
  8  9  2  0
  9 10  1  0
  9 11  1  0
 11 12  2  0
 12 13  1  0
 13 14  1  0
 14 15  2  0
 14 16  1  0
 16 17  1  0
 17 18  2  0
 18 19  1  0
 19 20  2  0
 20 21  1  0
 21 22  2  0
 22 23  1  0
 23 24  2  0
 24 25  1  0
 25 26  2  0
 25 27  1  0
 24 28  1  0
 23 29  1  0
 22 30  1  0
 20 31  1  0
 18 32  1  0
 16 33  1  0
 13 34  1  0
 34 35  1  0
 34 36  1  0
 13 37  1  6
 11 38  1  0
  8 39  1  0
  7 40  1  0
  5 41  1  0
  5 42  1  0
  4 43  1  1
  3 44  1  0
  3 45  1  0
  2 46  1  0
 46 47  1  0
 47 48  2  0
 48 49  1  0
 49 50  2  0
 50 51  1  0
 51 52  1  0
 52 53  1  0
 53 54  1  0
 54 55  1  0
 55 56  1  0
 56 57  2  0
 55 58  1  0
 55 59  1  0
 53 60  1  0
 53 61  1  0
 52 62  1  0
 52 63  1  0
 50 64  1  0
 64 65  2  0
 65 66  1  0
 64 67  1  0
 49 68  1  0
 48 69  1  0
 46 70  1  0
 34  4  1  0
 65 47  1  0
 12  6  1  0
 26 17  1  0
 56 51  1  0
 26 21  1  0
M  CHG  1   4   1
M  END
>  <cnnaffinities>  (25) 
[6.60737, 6.01898]

>  <score>  (25) 
6.60737

>  <index>  (25) 
25

>  <Smiles>  (25) 
O=C(C([N@+]1(C(c2c(c(c(Cl)c(c2[C@](C(=O)N(c2c(nc(c3c(c(c(c(c23)[H])[H])[H])[H])[H])[H])[H])(C1([H])[H])[H])[H])[H])[H])([H])[H])[H])([H])[H])N(c1c(c(c(N2C(C(OC(C2=O)([H])[H])([H])[H])([H])[H])c(c1[H])[H])[H])[H])[H]

>  <h>  (25) 
<NA>

>  <Training>  (25) 
True

>  <Success>  (25) 
True

>  <enamine_searched>  (25) 
False

>  <enamine_id>  (25) 
nan

$$$$

     RDKit          3D

 55 60  0  0  0  0  0  0  0  0999 V2000
  -10.2220   -1.0584  -23.6351 C   0  0  0  0  0  0  0  0  0  0  0  0
   -8.8545   -1.3657  -23.0319 C   0  0  1  0  0  0  0  0  0  0  0  0
   -8.3917   -0.4231  -21.9065 C   0  0  0  0  0  0  0  0  0  0  0  0
   -7.3883   -1.2193  -21.2181 N   0  0  0  0  0  0  0  0  0  0  0  0
   -6.5844   -0.7466  -20.1565 C   0  0  0  0  0  0  0  0  0  0  0  0
   -6.8810   -1.0477  -18.8527 C   0  0  0  0  0  0  0  0  0  0  0  0
   -6.2110   -0.5360  -17.7883 N   0  0  0  0  0  0  0  0  0  0  0  0
   -5.1979    0.2635  -18.0289 C   0  0  0  0  0  0  0  0  0  0  0  0
   -4.7443    0.5988  -19.3411 C   0  0  0  0  0  0  0  0  0  0  0  0
   -3.6073    1.4138  -19.5869 C   0  0  0  0  0  0  0  0  0  0  0  0
   -3.1910    1.6538  -20.8688 C   0  0  0  0  0  0  0  0  0  0  0  0
   -3.8827    1.0990  -21.9678 C   0  0  0  0  0  0  0  0  0  0  0  0
   -4.9932    0.3218  -21.7597 C   0  0  0  0  0  0  0  0  0  0  0  0
   -5.4498    0.0678  -20.4410 C   0  0  0  0  0  0  0  0  0  0  0  0
   -5.5160   -0.1304  -22.5952 H   0  0  0  0  0  0  0  0  0  0  0  0
   -3.5371    1.2814  -22.9810 H   0  0  0  0  0  0  0  0  0  0  0  0
   -2.3209    2.2769  -21.0581 H   0  0  0  0  0  0  0  0  0  0  0  0
   -3.0772    1.8412  -18.7412 H   0  0  0  0  0  0  0  0  0  0  0  0
   -4.6652    0.6651  -17.1637 H   0  0  0  0  0  0  0  0  0  0  0  0
   -7.7041   -1.7212  -18.6196 H   0  0  0  0  0  0  0  0  0  0  0  0
   -7.4927   -2.5668  -21.4742 C   0  0  0  0  0  0  0  0  0  0  0  0
   -6.7578   -3.4104  -20.9978 O   0  0  0  0  0  0  0  0  0  0  0  0
   -8.6822   -2.7941  -22.4120 C   0  0  1  0  0  0  0  0  0  0  0  0
   -9.8911   -3.2137  -21.5168 C   0  0  0  0  0  0  0  0  0  0  0  0
  -11.0408   -3.6855  -22.2718 N   0  0  0  0  0  0  0  0  0  0  0  0
  -12.3995   -3.6335  -21.7226 C   0  0  0  0  0  0  0  0  0  0  0  0
  -13.2744   -2.5271  -22.2475 C   0  0  0  0  0  0  0  0  0  0  0  0
  -14.1209   -1.6366  -21.5690 C   0  0  0  0  0  0  0  0  0  0  0  0
  -14.7943   -0.9090  -22.4543 N   0  0  0  0  0  0  0  0  0  0  0  0
  -14.3743   -1.3876  -23.6099 N   0  0  0  0  0  0  0  0  0  0  0  0
  -13.4563   -2.3388  -23.5520 N   0  0  0  0  0  0  0  0  0  0  0  0
  -14.6370   -0.9781  -24.4924 H   0  0  0  0  0  0  0  0  0  0  0  0
  -14.2445   -1.4694  -20.5055 H   0  0  0  0  0  0  0  0  0  0  0  0
  -12.4005   -3.5933  -20.6326 H   0  0  0  0  0  0  0  0  0  0  0  0
  -12.8775   -4.5679  -22.0219 H   0  0  0  0  0  0  0  0  0  0  0  0
  -10.8405   -4.5324  -23.3227 C   0  0  0  0  0  0  0  0  0  0  0  0
  -11.7490   -5.1720  -23.8186 O   0  0  0  0  0  0  0  0  0  0  0  0
   -9.4595   -4.6765  -23.8619 C   0  0  0  0  0  0  0  0  0  0  0  0
   -9.2771   -5.6628  -24.8266 C   0  0  0  0  0  0  0  0  0  0  0  0
   -8.0392   -5.8747  -25.3905 C   0  0  0  0  0  0  0  0  0  0  0  0
   -6.9927   -5.0632  -24.9703 C   0  0  0  0  0  0  0  0  0  0  0  0
   -5.7836   -5.2797  -25.5135 F   0  0  0  0  0  0  0  0  0  0  0  0
   -7.1431   -4.0798  -24.0095 C   0  0  0  0  0  0  0  0  0  0  0  0
   -8.4068   -3.8746  -23.4316 C   0  0  0  0  0  0  0  0  0  0  0  0
   -6.2709   -3.5089  -23.7103 H   0  0  0  0  0  0  0  0  0  0  0  0
   -7.8770   -6.6474  -26.1330 H   0  0  0  0  0  0  0  0  0  0  0  0
  -10.1486   -6.2443  -25.1031 H   0  0  0  0  0  0  0  0  0  0  0  0
   -9.5347   -3.9939  -20.8311 H   0  0  0  0  0  0  0  0  0  0  0  0
  -10.2283   -2.3549  -20.9317 H   0  0  0  0  0  0  0  0  0  0  0  0
   -7.9617    0.5139  -22.2787 H   0  0  0  0  0  0  0  0  0  0  0  0
   -9.2150   -0.1760  -21.2203 H   0  0  0  0  0  0  0  0  0  0  0  0
   -8.1135   -1.3005  -23.8424 H   0  0  0  0  0  0  0  0  0  0  0  0
  -10.2516   -0.0450  -24.0451 H   0  0  0  0  0  0  0  0  0  0  0  0
  -10.4320   -1.7464  -24.4606 H   0  0  0  0  0  0  0  0  0  0  0  0
  -11.0342   -1.1608  -22.9073 H   0  0  0  0  0  0  0  0  0  0  0  0
  1  2  1  0
  2  3  1  0
  3  4  1  0
  4  5  1  0
  5  6  2  0
  6  7  1  0
  7  8  2  0
  8  9  1  0
  9 10  2  0
 10 11  1  0
 11 12  2  0
 12 13  1  0
 13 14  2  0
 13 15  1  0
 12 16  1  0
 11 17  1  0
 10 18  1  0
  8 19  1  0
  6 20  1  0
  4 21  1  0
 21 22  2  0
 21 23  1  0
 23 24  1  1
 24 25  1  0
 25 26  1  0
 26 27  1  0
 27 28  1  0
 28 29  2  0
 29 30  1  0
 30 31  1  0
 30 32  1  0
 28 33  1  0
 26 34  1  0
 26 35  1  0
 25 36  1  0
 36 37  2  0
 36 38  1  0
 38 39  2  0
 39 40  1  0
 40 41  2  0
 41 42  1  0
 41 43  1  0
 43 44  2  0
 43 45  1  0
 40 46  1  0
 39 47  1  0
 24 48  1  0
 24 49  1  0
  3 50  1  0
  3 51  1  0
  2 52  1  6
  1 53  1  0
  1 54  1  0
  1 55  1  0
 23  2  1  0
 31 27  2  0
 44 38  1  0
 14  5  1  0
 44 23  1  0
 14  9  1  0
M  END
>  <cnnaffinities>  (26) 
[6.95577]

>  <score>  (26) 
6.95577

>  <index>  (26) 
26

>  <Smiles>  (26) 
C([C@]1(C(N(c2c(nc(c3c(c(c(c(c23)[H])[H])[H])[H])[H])[H])C(=O)[C@]21C(N(C(c1c(nn(n1)[H])[H])([H])[H])C(=O)c1c(c(c(F)c(c21)[H])[H])[H])([H])[H])([H])[H])[H])([H])([H])[H]

>  <h>  (26) 
<NA>

>  <Training>  (26) 
True

>  <Success>  (26) 
True

>  <enamine_searched>  (26) 
False

>  <enamine_id>  (26) 
nan

$$$$

     RDKit          3D

 58 62  0  0  0  0  0  0  0  0999 V2000
   -9.6049    0.4379  -29.1631 C   0  0  0  0  0  0  0  0  0  0  0  0
   -9.6463    0.8141  -27.7525 N   0  0  0  0  0  4  0  0  0  0  0  0
   -8.3296    0.8251  -27.0687 C   0  0  0  0  0  0  0  0  0  0  0  0
   -8.5779    1.0335  -25.5786 C   0  0  0  0  0  0  0  0  0  0  0  0
   -9.3088   -0.0962  -25.0141 N   0  0  0  0  0  0  0  0  0  0  0  0
   -8.5594   -1.2433  -24.5531 C   0  0  0  0  0  0  0  0  0  0  0  0
   -8.9258   -1.6392  -23.1010 C   0  0  2  0  0  0  0  0  0  0  0  0
   -8.2482   -0.6454  -22.1063 C   0  0  0  0  0  0  0  0  0  0  0  0
   -8.3890    0.5601  -22.0605 O   0  0  0  0  0  0  0  0  0  0  0  0
   -7.4131   -1.3624  -21.2727 N   0  0  0  0  0  0  0  0  0  0  0  0
   -6.6348   -0.7905  -20.2350 C   0  0  0  0  0  0  0  0  0  0  0  0
   -6.9305   -1.0647  -18.9224 C   0  0  0  0  0  0  0  0  0  0  0  0
   -6.2555   -0.5730  -17.8544 N   0  0  0  0  0  0  0  0  0  0  0  0
   -5.2295    0.2060  -18.0982 C   0  0  0  0  0  0  0  0  0  0  0  0
   -4.7796    0.5319  -19.4085 C   0  0  0  0  0  0  0  0  0  0  0  0
   -3.6403    1.3524  -19.6139 C   0  0  0  0  0  0  0  0  0  0  0  0
   -3.1972    1.6146  -20.8808 C   0  0  0  0  0  0  0  0  0  0  0  0
   -3.8618    1.0604  -21.9960 C   0  0  0  0  0  0  0  0  0  0  0  0
   -4.9703    0.2687  -21.8227 C   0  0  0  0  0  0  0  0  0  0  0  0
   -5.4772    0.0069  -20.5196 C   0  0  0  0  0  0  0  0  0  0  0  0
   -5.4608   -0.1732  -22.6838 H   0  0  0  0  0  0  0  0  0  0  0  0
   -3.4920    1.2600  -22.9974 H   0  0  0  0  0  0  0  0  0  0  0  0
   -2.3290    2.2476  -21.0391 H   0  0  0  0  0  0  0  0  0  0  0  0
   -3.1348    1.7596  -18.7430 H   0  0  0  0  0  0  0  0  0  0  0  0
   -4.6835    0.6049  -17.2416 H   0  0  0  0  0  0  0  0  0  0  0  0
   -7.7747   -1.7077  -18.6771 H   0  0  0  0  0  0  0  0  0  0  0  0
   -7.6624   -2.7845  -21.3224 C   0  0  0  0  0  0  0  0  0  0  0  0
   -8.3223   -3.0257  -22.6969 C   0  0  2  0  0  0  0  0  0  0  0  0
   -7.3926   -3.6858  -23.7284 C   0  0  0  0  0  0  0  0  0  0  0  0
   -6.4951   -3.0964  -23.9514 H   0  0  0  0  0  0  0  0  0  0  0  0
   -7.0718   -4.6693  -23.3734 H   0  0  0  0  0  0  0  0  0  0  0  0
   -7.9295   -3.8591  -24.6677 H   0  0  0  0  0  0  0  0  0  0  0  0
   -9.1498   -3.7334  -22.5740 H   0  0  0  0  0  0  0  0  0  0  0  0
   -8.3613   -3.0651  -20.5224 H   0  0  0  0  0  0  0  0  0  0  0  0
   -6.7224   -3.3286  -21.1752 H   0  0  0  0  0  0  0  0  0  0  0  0
  -10.4550   -1.6470  -22.9975 C   0  0  0  0  0  0  0  0  0  0  0  0
  -11.1140   -2.3507  -21.9789 C   0  0  0  0  0  0  0  0  0  0  0  0
  -12.4907   -2.3065  -21.8722 C   0  0  0  0  0  0  0  0  0  0  0  0
  -13.0725   -3.0132  -20.8856 F   0  0  0  0  0  0  0  0  0  0  0  0
  -13.2913   -1.5930  -22.7578 C   0  0  0  0  0  0  0  0  0  0  0  0
  -12.6495   -0.8685  -23.7431 C   0  0  0  0  0  0  0  0  0  0  0  0
  -11.2609   -0.9203  -23.8838 C   0  0  0  0  0  0  0  0  0  0  0  0
  -10.6655   -0.1264  -24.9878 C   0  0  0  0  0  0  0  0  0  0  0  0
  -11.3698    0.4814  -25.7973 O   0  0  0  0  0  0  0  0  0  0  0  0
  -13.1986   -0.2286  -24.4275 H   0  0  0  0  0  0  0  0  0  0  0  0
  -14.3741   -1.6553  -22.6884 H   0  0  0  0  0  0  0  0  0  0  0  0
  -10.5858   -2.9551  -21.2542 H   0  0  0  0  0  0  0  0  0  0  0  0
   -7.4952   -1.0076  -24.6235 H   0  0  0  0  0  0  0  0  0  0  0  0
   -8.7575   -2.1152  -25.1943 H   0  0  0  0  0  0  0  0  0  0  0  0
   -7.6524    1.1390  -24.9958 H   0  0  0  0  0  0  0  0  0  0  0  0
   -9.1746    1.9323  -25.3923 H   0  0  0  0  0  0  0  0  0  0  0  0
   -7.8213   -0.1384  -27.2085 H   0  0  0  0  0  0  0  0  0  0  0  0
   -7.6723    1.6066  -27.4620 H   0  0  0  0  0  0  0  0  0  0  0  0
  -10.0756    1.7524  -27.6400 H   0  0  0  0  0  0  0  0  0  0  0  0
  -10.2869    0.2045  -27.2228 H   0  0  0  0  0  0  0  0  0  0  0  0
   -9.0019    1.1560  -29.7265 H   0  0  0  0  0  0  0  0  0  0  0  0
  -10.6131    0.4185  -29.5735 H   0  0  0  0  0  0  0  0  0  0  0  0
   -9.1613   -0.5553  -29.2892 H   0  0  0  0  0  0  0  0  0  0  0  0
  1  2  1  0
  2  3  1  0
  3  4  1  0
  4  5  1  0
  5  6  1  0
  7  6  1  6
  7  8  1  0
  8  9  2  0
  8 10  1  0
 10 11  1  0
 11 12  2  0
 12 13  1  0
 13 14  2  0
 14 15  1  0
 15 16  2  0
 16 17  1  0
 17 18  2  0
 18 19  1  0
 19 20  2  0
 19 21  1  0
 18 22  1  0
 17 23  1  0
 16 24  1  0
 14 25  1  0
 12 26  1  0
 10 27  1  0
 27 28  1  0
 28 29  1  0
 29 30  1  0
 29 31  1  0
 29 32  1  0
 28 33  1  1
 27 34  1  0
 27 35  1  0
  7 36  1  0
 36 37  2  0
 37 38  1  0
 38 39  1  0
 38 40  2  0
 40 41  1  0
 41 42  2  0
 42 43  1  0
 43 44  2  0
 41 45  1  0
 40 46  1  0
 37 47  1  0
  6 48  1  0
  6 49  1  0
  4 50  1  0
  4 51  1  0
  3 52  1  0
  3 53  1  0
  2 54  1  0
  2 55  1  0
  1 56  1  0
  1 57  1  0
  1 58  1  0
 43  5  1  0
 28  7  1  0
 42 36  1  0
 20 11  1  0
 20 15  1  0
M  CHG  1   2   1
M  END
>  <cnnaffinities>  (27) 
[6.13427, 5.92508]

>  <score>  (27) 
6.13427

>  <index>  (27) 
27

>  <Smiles>  (27) 
C([N+](C(C(N1C([C@@]2(C(=O)N(c3c(nc(c4c(c(c(c(c34)[H])[H])[H])[H])[H])[H])C([C@@]2(C([H])([H])[H])[H])([H])[H])c2c(c(F)c(c(c2C1=O)[H])[H])[H])([H])[H])([H])[H])([H])[H])([H])[H])([H])([H])[H]

>  <h>  (27) 
<NA>

>  <Training>  (27) 
True

>  <Success>  (27) 
True

>  <enamine_searched>  (27) 
False

>  <enamine_id>  (27) 
nan

$$$$

     RDKit          3D

 64 68  0  0  0  0  0  0  0  0999 V2000
   -9.7642    1.1466  -29.2169 C   0  0  0  0  0  0  0  0  0  0  0  0
   -9.5756    1.4572  -27.8157 N   0  0  0  0  0  0  0  0  0  0  0  0
   -8.5717    0.8301  -27.1378 C   0  0  0  0  0  0  0  0  0  0  0  0
   -7.7340    0.1226  -27.6760 O   0  0  0  0  0  0  0  0  0  0  0  0
   -8.6238    1.0455  -25.6184 C   0  0  0  0  0  0  0  0  0  0  0  0
   -9.3066   -0.0712  -24.9970 N   0  0  0  0  0  0  0  0  0  0  0  0
   -8.5701   -1.2478  -24.5802 C   0  0  0  0  0  0  0  0  0  0  0  0
   -8.9443   -1.6482  -23.1355 C   0  0  2  0  0  0  0  0  0  0  0  0
   -8.2706   -0.6392  -22.1541 C   0  0  0  0  0  0  0  0  0  0  0  0
   -8.4134    0.5627  -22.1300 O   0  0  0  0  0  0  0  0  0  0  0  0
   -7.4355   -1.3462  -21.3047 N   0  0  0  0  0  0  0  0  0  0  0  0
   -6.6539   -0.7766  -20.2616 C   0  0  0  0  0  0  0  0  0  0  0  0
   -6.9464   -1.0600  -18.9496 C   0  0  0  0  0  0  0  0  0  0  0  0
   -6.2740   -0.5754  -17.8758 N   0  0  0  0  0  0  0  0  0  0  0  0
   -5.2445    0.2004  -18.1121 C   0  0  0  0  0  0  0  0  0  0  0  0
   -4.7865    0.5321  -19.4177 C   0  0  0  0  0  0  0  0  0  0  0  0
   -3.6437    1.3512  -19.6154 C   0  0  0  0  0  0  0  0  0  0  0  0
   -3.1951    1.6131  -20.8803 C   0  0  0  0  0  0  0  0  0  0  0  0
   -3.8568    1.0604  -21.9976 C   0  0  0  0  0  0  0  0  0  0  0  0
   -4.9689    0.2720  -21.8307 C   0  0  0  0  0  0  0  0  0  0  0  0
   -5.4834    0.0106  -20.5328 C   0  0  0  0  0  0  0  0  0  0  0  0
   -5.4576   -0.1699  -22.6921 H   0  0  0  0  0  0  0  0  0  0  0  0
   -3.4825    1.2582  -22.9967 H   0  0  0  0  0  0  0  0  0  0  0  0
   -2.3238    2.2427  -21.0335 H   0  0  0  0  0  0  0  0  0  0  0  0
   -3.1391    1.7550  -18.7418 H   0  0  0  0  0  0  0  0  0  0  0  0
   -4.7044    0.5867  -17.2482 H   0  0  0  0  0  0  0  0  0  0  0  0
   -7.7922   -1.7006  -18.7079 H   0  0  0  0  0  0  0  0  0  0  0  0
   -7.6322   -2.7741  -21.3675 C   0  0  0  0  0  0  0  0  0  0  0  0
   -8.3493   -3.0208  -22.7081 C   0  0  2  0  0  0  0  0  0  0  0  0
   -7.4788   -3.7405  -23.7533 C   0  0  0  0  0  0  0  0  0  0  0  0
   -7.1253   -5.4234  -23.2469 S   0  0  0  0  0  0  0  0  0  0  0  0
   -5.8176   -5.4700  -22.6092 O   0  0  0  0  0  0  0  0  0  0  0  0
   -8.2911   -5.9475  -22.5437 O   0  0  0  0  0  0  0  0  0  0  0  0
   -7.0199   -6.1824  -24.7463 N   0  0  0  0  0  0  0  0  0  0  0  0
   -6.6490   -7.5997  -24.6281 C   0  0  0  0  0  0  0  0  0  0  0  0
   -5.6688   -7.6662  -24.1537 H   0  0  0  0  0  0  0  0  0  0  0  0
   -7.3746   -8.1806  -24.0446 H   0  0  0  0  0  0  0  0  0  0  0  0
   -6.5850   -8.0021  -25.6399 H   0  0  0  0  0  0  0  0  0  0  0  0
   -7.9236   -6.0945  -25.2134 H   0  0  0  0  0  0  0  0  0  0  0  0
   -8.0379   -3.8609  -24.6860 H   0  0  0  0  0  0  0  0  0  0  0  0
   -6.5299   -3.2465  -23.9817 H   0  0  0  0  0  0  0  0  0  0  0  0
   -9.1723   -3.7180  -22.5492 H   0  0  0  0  0  0  0  0  0  0  0  0
   -8.2805   -3.0953  -20.5426 H   0  0  0  0  0  0  0  0  0  0  0  0
   -6.6742   -3.2986  -21.2750 H   0  0  0  0  0  0  0  0  0  0  0  0
  -10.4772   -1.6483  -23.0450 C   0  0  0  0  0  0  0  0  0  0  0  0
  -11.1414   -2.3715  -22.0394 C   0  0  0  0  0  0  0  0  0  0  0  0
  -12.5230   -2.3479  -21.9482 C   0  0  0  0  0  0  0  0  0  0  0  0
  -13.3044   -3.2642  -20.6833 Cl  0  0  0  0  0  0  0  0  0  0  0  0
  -13.3147   -1.6121  -22.8240 C   0  0  0  0  0  0  0  0  0  0  0  0
  -12.6732   -0.8603  -23.7854 C   0  0  0  0  0  0  0  0  0  0  0  0
  -11.2825   -0.8990  -23.9132 C   0  0  0  0  0  0  0  0  0  0  0  0
  -10.6660   -0.0385  -24.9597 C   0  0  0  0  0  0  0  0  0  0  0  0
  -11.3278    0.7115  -25.6808 O   0  0  0  0  0  0  0  0  0  0  0  0
  -13.2326   -0.2353  -24.4685 H   0  0  0  0  0  0  0  0  0  0  0  0
  -14.3972   -1.6403  -22.7440 H   0  0  0  0  0  0  0  0  0  0  0  0
  -10.6171   -2.9561  -21.2880 H   0  0  0  0  0  0  0  0  0  0  0  0
   -7.5070   -1.0139  -24.6492 H   0  0  0  0  0  0  0  0  0  0  0  0
   -8.7883   -2.0864  -25.2561 H   0  0  0  0  0  0  0  0  0  0  0  0
   -7.6155    1.1338  -25.1913 H   0  0  0  0  0  0  0  0  0  0  0  0
   -9.1777    1.9582  -25.3707 H   0  0  0  0  0  0  0  0  0  0  0  0
  -10.4076    1.6520  -27.2708 H   0  0  0  0  0  0  0  0  0  0  0  0
   -9.9974    0.0861  -29.3787 H   0  0  0  0  0  0  0  0  0  0  0  0
  -10.5820    1.7592  -29.6064 H   0  0  0  0  0  0  0  0  0  0  0  0
   -8.8423    1.3790  -29.7540 H   0  0  0  0  0  0  0  0  0  0  0  0
  1  2  1  0
  2  3  1  0
  3  4  2  0
  3  5  1  0
  5  6  1  0
  6  7  1  0
  8  7  1  6
  8  9  1  0
  9 10  2  0
  9 11  1  0
 11 12  1  0
 12 13  2  0
 13 14  1  0
 14 15  2  0
 15 16  1  0
 16 17  2  0
 17 18  1  0
 18 19  2  0
 19 20  1  0
 20 21  2  0
 20 22  1  0
 19 23  1  0
 18 24  1  0
 17 25  1  0
 15 26  1  0
 13 27  1  0
 11 28  1  0
 28 29  1  0
 29 30  1  0
 30 31  1  0
 31 32  2  0
 31 33  2  0
 31 34  1  0
 34 35  1  0
 35 36  1  0
 35 37  1  0
 35 38  1  0
 34 39  1  0
 30 40  1  0
 30 41  1  0
 29 42  1  1
 28 43  1  0
 28 44  1  0
  8 45  1  0
 45 46  2  0
 46 47  1  0
 47 48  1  0
 47 49  2  0
 49 50  1  0
 50 51  2  0
 51 52  1  0
 52 53  2  0
 50 54  1  0
 49 55  1  0
 46 56  1  0
  7 57  1  0
  7 58  1  0
  5 59  1  0
  5 60  1  0
  2 61  1  0
  1 62  1  0
  1 63  1  0
  1 64  1  0
 52  6  1  0
 29  8  1  0
 51 45  1  0
 21 12  1  0
 21 16  1  0
M  END
>  <cnnaffinities>  (28) 
[6.69502]

>  <score>  (28) 
6.69502

>  <index>  (28) 
28

>  <Smiles>  (28) 
C(N(C(=O)C(N1C([C@@]2(C(=O)N(c3c(nc(c4c(c(c(c(c34)[H])[H])[H])[H])[H])[H])C([C@@]2(C(S(=O)(=O)N(C([H])([H])[H])[H])([H])[H])[H])([H])[H])c2c(c(Cl)c(c(c2C1=O)[H])[H])[H])([H])[H])([H])[H])[H])([H])([H])[H]

>  <h>  (28) 
<NA>

>  <Training>  (28) 
True

>  <Success>  (28) 
True

>  <enamine_searched>  (28) 
False

>  <enamine_id>  (28) 
nan

$$$$

     RDKit          3D

 55 60  0  0  0  0  0  0  0  0999 V2000
  -10.2860   -1.1545  -23.5515 C   0  0  0  0  0  0  0  0  0  0  0  0
   -8.8773   -1.4154  -23.0229 C   0  0  1  0  0  0  0  0  0  0  0  0
   -8.3955   -0.4601  -21.9159 C   0  0  0  0  0  0  0  0  0  0  0  0
   -7.3855   -1.2482  -21.2264 N   0  0  0  0  0  0  0  0  0  0  0  0
   -6.5942   -0.7643  -20.1640 C   0  0  0  0  0  0  0  0  0  0  0  0
   -6.8969   -1.0639  -18.8598 C   0  0  0  0  0  0  0  0  0  0  0  0
   -6.2213   -0.5592  -17.7971 N   0  0  0  0  0  0  0  0  0  0  0  0
   -5.2063    0.2327  -18.0534 C   0  0  0  0  0  0  0  0  0  0  0  0
   -4.7535    0.5699  -19.3649 C   0  0  0  0  0  0  0  0  0  0  0  0
   -3.6203    1.3883  -19.6105 C   0  0  0  0  0  0  0  0  0  0  0  0
   -3.2119    1.6344  -20.8930 C   0  0  0  0  0  0  0  0  0  0  0  0
   -3.9037    1.0798  -21.9941 C   0  0  0  0  0  0  0  0  0  0  0  0
   -5.0090    0.2952  -21.7847 C   0  0  0  0  0  0  0  0  0  0  0  0
   -5.4602    0.0440  -20.4621 C   0  0  0  0  0  0  0  0  0  0  0  0
   -5.5369   -0.1575  -22.6180 H   0  0  0  0  0  0  0  0  0  0  0  0
   -3.5620    1.2688  -23.0073 H   0  0  0  0  0  0  0  0  0  0  0  0
   -2.3402    2.2553  -21.0780 H   0  0  0  0  0  0  0  0  0  0  0  0
   -3.0905    1.7980  -18.7557 H   0  0  0  0  0  0  0  0  0  0  0  0
   -4.6757    0.6413  -17.1955 H   0  0  0  0  0  0  0  0  0  0  0  0
   -7.7190   -1.7398  -18.6264 H   0  0  0  0  0  0  0  0  0  0  0  0
   -7.4738   -2.5985  -21.4617 C   0  0  0  0  0  0  0  0  0  0  0  0
   -6.7049   -3.4135  -20.9850 O   0  0  0  0  0  0  0  0  0  0  0  0
   -8.6742   -2.8328  -22.3872 C   0  0  1  0  0  0  0  0  0  0  0  0
   -9.8728   -3.2361  -21.4794 C   0  0  0  0  0  0  0  0  0  0  0  0
  -11.0438   -3.6989  -22.2185 N   0  0  0  0  0  0  0  0  0  0  0  0
  -12.4192   -3.6691  -21.6978 C   0  0  0  0  0  0  0  0  0  0  0  0
  -13.2881   -2.5472  -22.2237 C   0  0  0  0  0  0  0  0  0  0  0  0
  -14.1220   -1.6036  -21.5953 C   0  0  0  0  0  0  0  0  0  0  0  0
  -14.8111   -0.9371  -22.5125 N   0  0  0  0  0  0  0  0  0  0  0  0
  -14.3818   -1.4648  -23.6371 N   0  0  0  0  0  0  0  0  0  0  0  0
  -13.4941   -2.4322  -23.5341 N   0  0  0  0  0  0  0  0  0  0  0  0
  -14.7363   -1.1524  -24.5280 H   0  0  0  0  0  0  0  0  0  0  0  0
  -14.2667   -1.3770  -20.5498 H   0  0  0  0  0  0  0  0  0  0  0  0
  -12.4363   -3.6912  -20.6105 H   0  0  0  0  0  0  0  0  0  0  0  0
  -12.8841   -4.5958  -22.0499 H   0  0  0  0  0  0  0  0  0  0  0  0
  -10.8542   -4.5360  -23.2822 C   0  0  0  0  0  0  0  0  0  0  0  0
  -11.7819   -5.1374  -23.7875 O   0  0  0  0  0  0  0  0  0  0  0  0
   -9.4725   -4.7024  -23.8243 C   0  0  0  0  0  0  0  0  0  0  0  0
   -9.2818   -5.6867  -24.7933 C   0  0  0  0  0  0  0  0  0  0  0  0
   -8.0393   -5.8884  -25.3663 C   0  0  0  0  0  0  0  0  0  0  0  0
   -6.9856   -5.0760  -24.9513 C   0  0  0  0  0  0  0  0  0  0  0  0
   -5.7893   -5.2235  -25.5491 F   0  0  0  0  0  0  0  0  0  0  0  0
   -7.1395   -4.0989  -23.9828 C   0  0  0  0  0  0  0  0  0  0  0  0
   -8.4069   -3.9111  -23.4021 C   0  0  0  0  0  0  0  0  0  0  0  0
   -6.2818   -3.4943  -23.6915 H   0  0  0  0  0  0  0  0  0  0  0  0
   -7.8737   -6.6325  -26.1423 H   0  0  0  0  0  0  0  0  0  0  0  0
  -10.1325   -6.2946  -25.0808 H   0  0  0  0  0  0  0  0  0  0  0  0
   -9.5059   -4.0343  -20.8362 H   0  0  0  0  0  0  0  0  0  0  0  0
  -10.1197   -2.3868  -20.8349 H   0  0  0  0  0  0  0  0  0  0  0  0
   -7.9757    0.4766  -22.2956 H   0  0  0  0  0  0  0  0  0  0  0  0
   -9.2090   -0.1837  -21.2303 H   0  0  0  0  0  0  0  0  0  0  0  0
   -8.1701   -1.3457  -23.8644 H   0  0  0  0  0  0  0  0  0  0  0  0
  -10.4032   -0.1285  -23.9117 H   0  0  0  0  0  0  0  0  0  0  0  0
  -10.5178   -1.8497  -24.3669 H   0  0  0  0  0  0  0  0  0  0  0  0
  -11.0376   -1.3264  -22.7783 H   0  0  0  0  0  0  0  0  0  0  0  0
  1  2  1  0
  2  3  1  0
  3  4  1  0
  4  5  1  0
  5  6  2  0
  6  7  1  0
  7  8  2  0
  8  9  1  0
  9 10  2  0
 10 11  1  0
 11 12  2  0
 12 13  1  0
 13 14  2  0
 13 15  1  0
 12 16  1  0
 11 17  1  0
 10 18  1  0
  8 19  1  0
  6 20  1  0
  4 21  1  0
 21 22  2  0
 21 23  1  0
 23 24  1  1
 24 25  1  0
 25 26  1  0
 26 27  1  0
 27 28  1  0
 28 29  2  0
 29 30  1  0
 30 31  1  0
 30 32  1  0
 28 33  1  0
 26 34  1  0
 26 35  1  0
 25 36  1  0
 36 37  2  0
 36 38  1  0
 38 39  2  0
 39 40  1  0
 40 41  2  0
 41 42  1  0
 41 43  1  0
 43 44  2  0
 43 45  1  0
 40 46  1  0
 39 47  1  0
 24 48  1  0
 24 49  1  0
  3 50  1  0
  3 51  1  0
  2 52  1  6
  1 53  1  0
  1 54  1  0
  1 55  1  0
 23  2  1  0
 31 27  2  0
 44 38  1  0
 14  5  1  0
 44 23  1  0
 14  9  1  0
M  END
>  <cnnaffinities>  (29) 
[6.94568, 6.70012]

>  <score>  (29) 
6.94568

>  <index>  (29) 
29

>  <Smiles>  (29) 
C([C@]1(C(N(c2c(nc(c3c(c(c(c(c23)[H])[H])[H])[H])[H])[H])C(=O)[C@]21C(N(C(c1c(nn(n1)[H])[H])([H])[H])C(=O)c1c(c(c(F)c(c21)[H])[H])[H])([H])[H])([H])[H])[H])([H])([H])[H]

>  <h>  (29) 
<NA>

>  <Training>  (29) 
True

>  <Success>  (29) 
True

>  <enamine_searched>  (29) 
False

>  <enamine_id>  (29) 
nan

$$$$

     RDKit          3D

 58 63  0  0  0  0  0  0  0  0999 V2000
  -10.2185   -1.0152  -23.6825 C   0  0  0  0  0  0  0  0  0  0  0  0
   -8.8696   -1.3281  -23.0450 C   0  0  1  0  0  0  0  0  0  0  0  0
   -8.4183   -0.3900  -21.9088 C   0  0  0  0  0  0  0  0  0  0  0  0
   -7.4171   -1.1894  -21.2227 N   0  0  0  0  0  0  0  0  0  0  0  0
   -6.6099   -0.7284  -20.1585 C   0  0  0  0  0  0  0  0  0  0  0  0
   -6.8986   -1.0496  -18.8580 C   0  0  0  0  0  0  0  0  0  0  0  0
   -6.2242   -0.5496  -17.7906 N   0  0  0  0  0  0  0  0  0  0  0  0
   -5.2147    0.2552  -18.0315 C   0  0  0  0  0  0  0  0  0  0  0  0
   -4.7609    0.5988  -19.3418 C   0  0  0  0  0  0  0  0  0  0  0  0
   -3.6224    1.4106  -19.5880 C   0  0  0  0  0  0  0  0  0  0  0  0
   -3.2049    1.6478  -20.8703 C   0  0  0  0  0  0  0  0  0  0  0  0
   -3.8939    1.0908  -21.9705 C   0  0  0  0  0  0  0  0  0  0  0  0
   -5.0076    0.3195  -21.7626 C   0  0  0  0  0  0  0  0  0  0  0  0
   -5.4681    0.0751  -20.4434 C   0  0  0  0  0  0  0  0  0  0  0  0
   -5.5327   -0.1361  -22.5961 H   0  0  0  0  0  0  0  0  0  0  0  0
   -3.5457    1.2687  -22.9836 H   0  0  0  0  0  0  0  0  0  0  0  0
   -2.3324    2.2663  -21.0586 H   0  0  0  0  0  0  0  0  0  0  0  0
   -3.0937    1.8364  -18.7410 H   0  0  0  0  0  0  0  0  0  0  0  0
   -4.6858    0.6565  -17.1654 H   0  0  0  0  0  0  0  0  0  0  0  0
   -7.7125   -1.7380  -18.6326 H   0  0  0  0  0  0  0  0  0  0  0  0
   -7.5335   -2.5359  -21.4726 C   0  0  0  0  0  0  0  0  0  0  0  0
   -6.7881   -3.3711  -20.9988 O   0  0  0  0  0  0  0  0  0  0  0  0
   -8.7248   -2.7541  -22.4170 C   0  0  1  0  0  0  0  0  0  0  0  0
   -9.9481   -3.1462  -21.5276 C   0  0  0  0  0  0  0  0  0  0  0  0
  -11.1026   -3.6364  -22.2731 N   0  0  0  0  0  0  0  0  0  0  0  0
  -12.4598   -3.6127  -21.7166 C   0  0  0  0  0  0  0  0  0  0  0  0
  -13.3890   -2.4751  -22.0990 C   0  0  0  0  0  0  0  0  0  0  0  0
  -14.0532   -1.7950  -21.1265 C   0  0  0  0  0  0  0  0  0  0  0  0
  -14.9627   -0.7043  -21.4286 C   0  0  0  0  0  0  0  0  0  0  0  0
  -15.5568    0.0123  -20.6438 O   0  0  0  0  0  0  0  0  0  0  0  0
  -15.1551   -0.5653  -22.8236 N   0  0  0  0  0  0  0  0  0  0  0  0
  -14.4579   -1.3111  -23.7327 C   0  0  0  0  0  0  0  0  0  0  0  0
  -13.5963   -2.2321  -23.4386 N   0  0  0  0  0  0  0  0  0  0  0  0
  -14.6567   -1.0933  -24.7826 H   0  0  0  0  0  0  0  0  0  0  0  0
  -15.7549    0.2066  -23.1201 H   0  0  0  0  0  0  0  0  0  0  0  0
  -13.8789   -2.0332  -20.0868 H   0  0  0  0  0  0  0  0  0  0  0  0
  -12.9464   -4.5259  -22.0611 H   0  0  0  0  0  0  0  0  0  0  0  0
  -12.4412   -3.6368  -20.6306 H   0  0  0  0  0  0  0  0  0  0  0  0
  -10.8920   -4.4966  -23.3106 C   0  0  0  0  0  0  0  0  0  0  0  0
  -11.7898   -5.1620  -23.7880 O   0  0  0  0  0  0  0  0  0  0  0  0
   -9.5114   -4.6316  -23.8580 C   0  0  0  0  0  0  0  0  0  0  0  0
   -9.3271   -5.6229  -24.8195 C   0  0  0  0  0  0  0  0  0  0  0  0
   -8.0835   -5.8538  -25.3715 C   0  0  0  0  0  0  0  0  0  0  0  0
   -7.0259   -5.0562  -24.9471 C   0  0  0  0  0  0  0  0  0  0  0  0
   -5.8119   -5.2748  -25.4835 F   0  0  0  0  0  0  0  0  0  0  0  0
   -7.1796   -4.0680  -23.9899 C   0  0  0  0  0  0  0  0  0  0  0  0
   -8.4495   -3.8419  -23.4275 C   0  0  0  0  0  0  0  0  0  0  0  0
   -6.3091   -3.4991  -23.6789 H   0  0  0  0  0  0  0  0  0  0  0  0
   -7.9178   -6.6275  -26.1142 H   0  0  0  0  0  0  0  0  0  0  0  0
  -10.1955   -6.2066  -25.1044 H   0  0  0  0  0  0  0  0  0  0  0  0
   -9.5775   -3.9067  -20.8302 H   0  0  0  0  0  0  0  0  0  0  0  0
  -10.2753   -2.2766  -20.9535 H   0  0  0  0  0  0  0  0  0  0  0  0
   -9.2394   -0.1419  -21.2204 H   0  0  0  0  0  0  0  0  0  0  0  0
   -7.9910    0.5511  -22.2690 H   0  0  0  0  0  0  0  0  0  0  0  0
   -8.1095   -1.2662  -23.8387 H   0  0  0  0  0  0  0  0  0  0  0  0
  -11.0520   -1.1226  -22.9818 H   0  0  0  0  0  0  0  0  0  0  0  0
  -10.4209   -1.7042  -24.5099 H   0  0  0  0  0  0  0  0  0  0  0  0
  -10.2329    0.0003  -24.0873 H   0  0  0  0  0  0  0  0  0  0  0  0
  1  2  1  0
  2  3  1  0
  3  4  1  0
  4  5  1  0
  5  6  2  0
  6  7  1  0
  7  8  2  0
  8  9  1  0
  9 10  2  0
 10 11  1  0
 11 12  2  0
 12 13  1  0
 13 14  2  0
 13 15  1  0
 12 16  1  0
 11 17  1  0
 10 18  1  0
  8 19  1  0
  6 20  1  0
  4 21  1  0
 21 22  2  0
 21 23  1  0
 23 24  1  1
 24 25  1  0
 25 26  1  0
 26 27  1  0
 27 28  2  0
 28 29  1  0
 29 30  2  0
 29 31  1  0
 31 32  1  0
 32 33  2  0
 32 34  1  0
 31 35  1  0
 28 36  1  0
 26 37  1  0
 26 38  1  0
 25 39  1  0
 39 40  2  0
 39 41  1  0
 41 42  2  0
 42 43  1  0
 43 44  2  0
 44 45  1  0
 44 46  1  0
 46 47  2  0
 46 48  1  0
 43 49  1  0
 42 50  1  0
 24 51  1  0
 24 52  1  0
  3 53  1  0
  3 54  1  0
  2 55  1  6
  1 56  1  0
  1 57  1  0
  1 58  1  0
 23  2  1  0
 33 27  1  0
 47 41  1  0
 14  5  1  0
 47 23  1  0
 14  9  1  0
M  END
>  <cnnaffinities>  (30) 
[7.13231]

>  <score>  (30) 
7.13231

>  <index>  (30) 
30

>  <Smiles>  (30) 
C([C@]1(C(N(c2c(nc(c3c(c(c(c(c23)[H])[H])[H])[H])[H])[H])C(=O)[C@]21C(N(C(c1c(c(=O)n(c(n1)[H])[H])[H])([H])[H])C(=O)c1c(c(c(F)c(c21)[H])[H])[H])([H])[H])([H])[H])[H])([H])([H])[H]

>  <h>  (30) 
<NA>

>  <Training>  (30) 
True

>  <Success>  (30) 
True

>  <enamine_searched>  (30) 
False

>  <enamine_id>  (30) 
nan

$$$$

     RDKit          3D

 66 71  0  0  0  0  0  0  0  0999 V2000
   -6.8145    0.0957  -29.3774 C   0  0  0  0  0  0  0  0  0  0  0  0
   -7.1588    0.6277  -28.0765 N   0  0  0  0  0  0  0  0  0  0  0  0
   -6.6091    0.0565  -26.9746 C   0  0  0  0  0  0  0  0  0  0  0  0
   -5.8121   -0.8729  -27.0191 O   0  0  0  0  0  0  0  0  0  0  0  0
   -7.1004    0.6568  -25.6607 C   0  0  0  0  0  0  0  0  0  0  0  0
   -8.2069   -0.1081  -25.1326 N   0  0  0  0  0  0  0  0  0  0  0  0
   -7.9386   -1.3932  -24.5197 C   0  0  0  0  0  0  0  0  0  0  0  0
   -8.7740   -1.5714  -23.2277 C   0  0  2  0  0  0  0  0  0  0  0  0
   -8.2259   -0.6145  -22.1291 C   0  0  0  0  0  0  0  0  0  0  0  0
   -8.3962    0.5785  -22.0349 O   0  0  0  0  0  0  0  0  0  0  0  0
   -7.4578   -1.3623  -21.2561 N   0  0  0  0  0  0  0  0  0  0  0  0
   -6.6446   -0.8059  -20.2345 C   0  0  0  0  0  0  0  0  0  0  0  0
   -6.9309   -1.0786  -18.9173 C   0  0  0  0  0  0  0  0  0  0  0  0
   -6.2509   -0.5867  -17.8522 N   0  0  0  0  0  0  0  0  0  0  0  0
   -5.2249    0.1907  -18.1096 C   0  0  0  0  0  0  0  0  0  0  0  0
   -4.7790    0.5101  -19.4240 C   0  0  0  0  0  0  0  0  0  0  0  0
   -3.6400    1.3342  -19.6305 C   0  0  0  0  0  0  0  0  0  0  0  0
   -3.2041    1.6058  -20.8990 C   0  0  0  0  0  0  0  0  0  0  0  0
   -3.8773    1.0609  -22.0137 C   0  0  0  0  0  0  0  0  0  0  0  0
   -4.9872    0.2687  -21.8397 C   0  0  0  0  0  0  0  0  0  0  0  0
   -5.4843   -0.0120  -20.5309 C   0  0  0  0  0  0  0  0  0  0  0  0
   -5.4865   -0.1444  -22.7121 H   0  0  0  0  0  0  0  0  0  0  0  0
   -3.5127    1.2699  -23.0157 H   0  0  0  0  0  0  0  0  0  0  0  0
   -2.3380    2.2413  -21.0560 H   0  0  0  0  0  0  0  0  0  0  0  0
   -3.1350    1.7424  -18.7592 H   0  0  0  0  0  0  0  0  0  0  0  0
   -4.6735    0.5968  -17.2617 H   0  0  0  0  0  0  0  0  0  0  0  0
   -7.7812   -1.7173  -18.6833 H   0  0  0  0  0  0  0  0  0  0  0  0
   -7.4061   -2.7678  -21.5901 C   0  0  0  0  0  0  0  0  0  0  0  0
   -8.5584   -2.9584  -22.5741 C   0  0  2  0  0  0  0  0  0  0  0  0
   -8.3334   -4.1302  -23.5171 C   0  0  0  0  0  0  0  0  0  0  0  0
   -9.4537   -4.3522  -24.3885 N   0  0  0  0  0  0  0  0  0  0  0  0
   -9.4443   -5.2747  -25.3759 C   0  0  0  0  0  0  0  0  0  0  0  0
   -8.3722   -6.1656  -25.5778 C   0  0  0  0  0  0  0  0  0  0  0  0
   -8.4948   -7.0393  -26.6377 C   0  0  0  0  0  0  0  0  0  0  0  0
   -9.5548   -7.0737  -27.4513 N   0  0  0  0  0  0  0  0  0  0  0  0
  -10.5064   -6.2014  -27.1464 C   0  0  0  0  0  0  0  0  0  0  0  0
  -10.5247   -5.3079  -26.1645 N   0  0  0  0  0  0  0  0  0  0  0  0
  -11.3898   -6.2043  -27.7779 H   0  0  0  0  0  0  0  0  0  0  0  0
   -7.7038   -7.7504  -26.8608 H   0  0  0  0  0  0  0  0  0  0  0  0
   -7.4892   -6.1750  -24.9509 H   0  0  0  0  0  0  0  0  0  0  0  0
  -10.2544   -3.7364  -24.3963 H   0  0  0  0  0  0  0  0  0  0  0  0
   -7.4261   -3.9518  -24.1137 H   0  0  0  0  0  0  0  0  0  0  0  0
   -8.1609   -5.0404  -22.9335 H   0  0  0  0  0  0  0  0  0  0  0  0
   -9.4489   -3.1843  -21.9848 H   0  0  0  0  0  0  0  0  0  0  0  0
   -7.5341   -3.3544  -20.6854 H   0  0  0  0  0  0  0  0  0  0  0  0
   -6.4391   -3.0532  -22.0289 H   0  0  0  0  0  0  0  0  0  0  0  0
  -10.2191   -1.2938  -23.5865 C   0  0  0  0  0  0  0  0  0  0  0  0
  -11.2700   -1.7884  -22.8015 C   0  0  0  0  0  0  0  0  0  0  0  0
  -12.5663   -1.3760  -23.0480 C   0  0  0  0  0  0  0  0  0  0  0  0
  -13.8135   -1.8881  -21.9472 Cl  0  0  0  0  0  0  0  0  0  0  0  0
  -12.8962   -0.5494  -24.1237 C   0  0  0  0  0  0  0  0  0  0  0  0
  -11.8677   -0.1041  -24.9312 C   0  0  0  0  0  0  0  0  0  0  0  0
  -10.5439   -0.4315  -24.6466 C   0  0  0  0  0  0  0  0  0  0  0  0
   -9.4814    0.2702  -25.4317 C   0  0  0  0  0  0  0  0  0  0  0  0
   -9.7311    1.1462  -26.2556 O   0  0  0  0  0  0  0  0  0  0  0  0
  -12.0534    0.5342  -25.7862 H   0  0  0  0  0  0  0  0  0  0  0  0
  -13.9290   -0.2638  -24.2996 H   0  0  0  0  0  0  0  0  0  0  0  0
  -11.1031   -2.4765  -21.9767 H   0  0  0  0  0  0  0  0  0  0  0  0
   -8.1772   -2.2054  -25.2224 H   0  0  0  0  0  0  0  0  0  0  0  0
   -6.8666   -1.4582  -24.3093 H   0  0  0  0  0  0  0  0  0  0  0  0
   -7.4361    1.6905  -25.7959 H   0  0  0  0  0  0  0  0  0  0  0  0
   -6.2831    0.6224  -24.9332 H   0  0  0  0  0  0  0  0  0  0  0  0
   -7.9976    1.1861  -27.9653 H   0  0  0  0  0  0  0  0  0  0  0  0
   -5.7375    0.2000  -29.5400 H   0  0  0  0  0  0  0  0  0  0  0  0
   -7.3423    0.6509  -30.1553 H   0  0  0  0  0  0  0  0  0  0  0  0
   -7.0720   -0.9680  -29.4481 H   0  0  0  0  0  0  0  0  0  0  0  0
  1  2  1  0
  2  3  1  0
  3  4  2  0
  3  5  1  0
  5  6  1  0
  6  7  1  0
  8  7  1  6
  8  9  1  0
  9 10  2  0
  9 11  1  0
 11 12  1  0
 12 13  2  0
 13 14  1  0
 14 15  2  0
 15 16  1  0
 16 17  2  0
 17 18  1  0
 18 19  2  0
 19 20  1  0
 20 21  2  0
 20 22  1  0
 19 23  1  0
 18 24  1  0
 17 25  1  0
 15 26  1  0
 13 27  1  0
 11 28  1  0
 28 29  1  0
 29 30  1  0
 30 31  1  0
 31 32  1  0
 32 33  2  0
 33 34  1  0
 34 35  2  0
 35 36  1  0
 36 37  2  0
 36 38  1  0
 34 39  1  0
 33 40  1  0
 31 41  1  0
 30 42  1  0
 30 43  1  0
 29 44  1  1
 28 45  1  0
 28 46  1  0
  8 47  1  0
 47 48  2  0
 48 49  1  0
 49 50  1  0
 49 51  2  0
 51 52  1  0
 52 53  2  0
 53 54  1  0
 54 55  2  0
 52 56  1  0
 51 57  1  0
 48 58  1  0
  7 59  1  0
  7 60  1  0
  5 61  1  0
  5 62  1  0
  2 63  1  0
  1 64  1  0
  1 65  1  0
  1 66  1  0
 54  6  1  0
 29  8  1  0
 37 32  1  0
 53 47  1  0
 21 12  1  0
 21 16  1  0
M  END
>  <cnnaffinities>  (31) 
[6.88147, 6.5318]

>  <score>  (31) 
6.88147

>  <index>  (31) 
31

>  <Smiles>  (31) 
C(N(C(=O)C(N1C([C@@]2(C(=O)N(c3c(nc(c4c(c(c(c(c34)[H])[H])[H])[H])[H])[H])C([C@@]2(C(N(c2c(c(nc(n2)[H])[H])[H])[H])([H])[H])[H])([H])[H])c2c(c(Cl)c(c(c2C1=O)[H])[H])[H])([H])[H])([H])[H])[H])([H])([H])[H]

>  <h>  (31) 
<NA>

>  <Training>  (31) 
True

>  <Success>  (31) 
True

>  <enamine_searched>  (31) 
False

>  <enamine_id>  (31) 
nan

$$$$

     RDKit          3D

 57 62  0  0  0  0  0  0  0  0999 V2000
  -10.2224   -2.9754  -22.0742 C   0  0  0  0  0  0  0  0  0  0  0  0
   -9.1494   -2.0278  -22.6326 C   0  0  1  0  0  0  0  0  0  0  0  0
   -8.6782   -1.0461  -21.5401 C   0  0  0  0  0  0  0  0  0  0  0  0
   -7.3390   -1.4699  -21.2055 N   0  0  0  0  0  0  0  0  0  0  0  0
   -6.5669   -0.8627  -20.1862 C   0  0  0  0  0  0  0  0  0  0  0  0
   -6.9052   -1.0564  -18.8707 C   0  0  0  0  0  0  0  0  0  0  0  0
   -6.2243   -0.5433  -17.8168 N   0  0  0  0  0  0  0  0  0  0  0  0
   -5.1844    0.2107  -18.0864 C   0  0  0  0  0  0  0  0  0  0  0  0
   -4.7415    0.5164  -19.4055 C   0  0  0  0  0  0  0  0  0  0  0  0
   -3.6195    1.3564  -19.6341 C   0  0  0  0  0  0  0  0  0  0  0  0
   -3.2323    1.6645  -20.9085 C   0  0  0  0  0  0  0  0  0  0  0  0
   -3.9519    1.1512  -22.0133 C   0  0  0  0  0  0  0  0  0  0  0  0
   -5.0375    0.3331  -21.8229 C   0  0  0  0  0  0  0  0  0  0  0  0
   -5.4515   -0.0206  -20.5028 C   0  0  0  0  0  0  0  0  0  0  0  0
   -5.5832   -0.0495  -22.6867 H   0  0  0  0  0  0  0  0  0  0  0  0
   -3.6404    1.4078  -23.0222 H   0  0  0  0  0  0  0  0  0  0  0  0
   -2.3737    2.3081  -21.0836 H   0  0  0  0  0  0  0  0  0  0  0  0
   -3.0897    1.7537  -18.7719 H   0  0  0  0  0  0  0  0  0  0  0  0
   -4.6330    0.6226  -17.2401 H   0  0  0  0  0  0  0  0  0  0  0  0
   -7.7611   -1.6841  -18.6219 H   0  0  0  0  0  0  0  0  0  0  0  0
   -6.8190   -2.4192  -22.0490 C   0  0  0  0  0  0  0  0  0  0  0  0
   -5.7275   -2.9323  -21.9158 O   0  0  0  0  0  0  0  0  0  0  0  0
   -7.8462   -2.6984  -23.1621 C   0  0  1  0  0  0  0  0  0  0  0  0
   -7.9771   -4.2170  -23.3773 C   0  0  0  0  0  0  0  0  0  0  0  0
   -6.7681   -4.7675  -23.9752 N   0  0  0  0  0  0  0  0  0  0  0  0
   -6.1496   -5.9161  -23.3205 C   0  0  0  0  0  0  0  0  0  0  0  0
   -7.1413   -7.0357  -23.2948 C   0  0  0  0  0  0  0  0  0  0  0  0
   -7.8005   -7.5481  -22.2783 N   0  0  0  0  0  0  0  0  0  0  0  0
   -8.8390   -8.2171  -22.8152 N   0  0  0  0  0  0  0  0  0  0  0  0
   -8.8264   -8.1435  -24.0938 N   0  0  0  0  0  0  0  0  0  0  0  0
   -7.7333   -7.4460  -24.4259 N   0  0  0  0  0  0  0  0  0  0  0  0
   -7.2531   -7.3726  -25.7802 C   0  0  0  0  0  0  0  0  0  0  0  0
   -7.4801   -6.4199  -26.2529 H   0  0  0  0  0  0  0  0  0  0  0  0
   -6.1781   -7.5277  -25.7858 H   0  0  0  0  0  0  0  0  0  0  0  0
   -7.7447   -8.1683  -26.3214 H   0  0  0  0  0  0  0  0  0  0  0  0
   -5.8582   -5.6566  -22.2964 H   0  0  0  0  0  0  0  0  0  0  0  0
   -5.2477   -6.1563  -23.8914 H   0  0  0  0  0  0  0  0  0  0  0  0
   -6.1975   -4.2261  -25.0875 C   0  0  0  0  0  0  0  0  0  0  0  0
   -5.3757   -4.8265  -25.7781 O   0  0  0  0  0  0  0  0  0  0  0  0
   -6.6028   -2.8210  -25.3816 C   0  0  0  0  0  0  0  0  0  0  0  0
   -6.1290   -2.2580  -26.5627 C   0  0  0  0  0  0  0  0  0  0  0  0
   -6.3630   -0.9277  -26.8440 C   0  0  0  0  0  0  0  0  0  0  0  0
   -7.0668   -0.1735  -25.9127 C   0  0  0  0  0  0  0  0  0  0  0  0
   -7.2749    1.1320  -26.1700 F   0  0  0  0  0  0  0  0  0  0  0  0
   -7.5571   -0.7124  -24.7374 C   0  0  0  0  0  0  0  0  0  0  0  0
   -7.3522   -2.0734  -24.4646 C   0  0  0  0  0  0  0  0  0  0  0  0
   -8.0930   -0.0525  -24.0611 H   0  0  0  0  0  0  0  0  0  0  0  0
   -5.9951   -0.4500  -27.7435 H   0  0  0  0  0  0  0  0  0  0  0  0
   -5.5584   -2.8970  -27.2276 H   0  0  0  0  0  0  0  0  0  0  0  0
   -8.8388   -4.4082  -24.0313 H   0  0  0  0  0  0  0  0  0  0  0  0
   -8.1400   -4.7275  -22.4246 H   0  0  0  0  0  0  0  0  0  0  0  0
   -8.6891    0.0017  -21.8689 H   0  0  0  0  0  0  0  0  0  0  0  0
   -9.3238   -1.1105  -20.6694 H   0  0  0  0  0  0  0  0  0  0  0  0
   -9.6250   -1.4846  -23.4557 H   0  0  0  0  0  0  0  0  0  0  0  0
  -10.6057   -3.6548  -22.8415 H   0  0  0  0  0  0  0  0  0  0  0  0
  -11.0755   -2.3990  -21.6970 H   0  0  0  0  0  0  0  0  0  0  0  0
   -9.8360   -3.5766  -21.2437 H   0  0  0  0  0  0  0  0  0  0  0  0
  1  2  1  0
  2  3  1  0
  3  4  1  0
  4  5  1  0
  5  6  2  0
  6  7  1  0
  7  8  2  0
  8  9  1  0
  9 10  2  0
 10 11  1  0
 11 12  2  0
 12 13  1  0
 13 14  2  0
 13 15  1  0
 12 16  1  0
 11 17  1  0
 10 18  1  0
  8 19  1  0
  6 20  1  0
  4 21  1  0
 21 22  2  0
 21 23  1  0
 23 24  1  6
 24 25  1  0
 25 26  1  0
 26 27  1  0
 27 28  2  0
 28 29  1  0
 29 30  2  0
 30 31  1  0
 31 32  1  0
 32 33  1  0
 32 34  1  0
 32 35  1  0
 26 36  1  0
 26 37  1  0
 25 38  1  0
 38 39  2  0
 38 40  1  0
 40 41  2  0
 41 42  1  0
 42 43  2  0
 43 44  1  0
 43 45  1  0
 45 46  2  0
 45 47  1  0
 42 48  1  0
 41 49  1  0
 24 50  1  0
 24 51  1  0
  3 52  1  0
  3 53  1  0
  2 54  1  6
  1 55  1  0
  1 56  1  0
  1 57  1  0
 23  2  1  0
 31 27  1  0
 46 40  1  0
 14  5  1  0
 46 23  1  0
 14  9  1  0
M  END
>  <cnnaffinities>  (32) 
[6.38321, 6.40869]

>  <score>  (32) 
6.38321

>  <index>  (32) 
32

>  <Smiles>  (32) 
C([C@]1(C(N(c2c(nc(c3c(c(c(c(c23)[H])[H])[H])[H])[H])[H])C(=O)[C@]21C(N(C(c1nnnn1C([H])([H])[H])([H])[H])C(=O)c1c(c(c(F)c(c21)[H])[H])[H])([H])[H])([H])[H])[H])([H])([H])[H]

>  <h>  (32) 
<NA>

>  <Training>  (32) 
True

>  <Success>  (32) 
True

>  <enamine_searched>  (32) 
False

>  <enamine_id>  (32) 
nan

$$$$

     RDKit          3D

 66 70  0  0  0  0  0  0  0  0999 V2000
   -6.9458    3.4135  -23.1344 C   0  0  0  0  0  0  0  0  0  0  0  0
   -7.6862    2.6385  -24.1164 N   0  0  0  0  0  0  0  0  0  0  0  0
   -7.0581    1.6299  -24.7770 C   0  0  0  0  0  0  0  0  0  0  0  0
   -5.8578    1.4326  -24.6832 O   0  0  0  0  0  0  0  0  0  0  0  0
   -7.9480    0.7651  -25.6759 C   0  0  0  0  0  0  0  0  0  0  0  0
   -8.8562   -0.0693  -24.9154 N   0  0  0  0  0  0  0  0  0  0  0  0
   -8.3900   -1.3408  -24.3861 C   0  0  0  0  0  0  0  0  0  0  0  0
   -9.0264   -1.6415  -22.9989 C   0  0  2  0  0  0  0  0  0  0  0  0
   -8.4038   -0.6541  -21.9794 C   0  0  0  0  0  0  0  0  0  0  0  0
   -8.6418    0.5270  -21.8737 O   0  0  0  0  0  0  0  0  0  0  0  0
   -7.4868   -1.3519  -21.2161 N   0  0  0  0  0  0  0  0  0  0  0  0
   -6.6735   -0.7708  -20.2103 C   0  0  0  0  0  0  0  0  0  0  0  0
   -6.9465   -1.0499  -18.8943 C   0  0  0  0  0  0  0  0  0  0  0  0
   -6.2484   -0.5703  -17.8382 N   0  0  0  0  0  0  0  0  0  0  0  0
   -5.2211    0.2009  -18.1024 C   0  0  0  0  0  0  0  0  0  0  0  0
   -4.7914    0.5291  -19.4183 C   0  0  0  0  0  0  0  0  0  0  0  0
   -3.6477    1.3422  -19.6382 C   0  0  0  0  0  0  0  0  0  0  0  0
   -3.2265    1.6178  -20.9093 C   0  0  0  0  0  0  0  0  0  0  0  0
   -3.9276    1.0908  -22.0174 C   0  0  0  0  0  0  0  0  0  0  0  0
   -5.0412    0.3054  -21.8316 C   0  0  0  0  0  0  0  0  0  0  0  0
   -5.5187    0.0178  -20.5213 C   0  0  0  0  0  0  0  0  0  0  0  0
   -5.5511   -0.0919  -22.7033 H   0  0  0  0  0  0  0  0  0  0  0  0
   -3.6025    1.3204  -23.0280 H   0  0  0  0  0  0  0  0  0  0  0  0
   -2.3500    2.2383  -21.0744 H   0  0  0  0  0  0  0  0  0  0  0  0
   -3.1248    1.7368  -18.7710 H   0  0  0  0  0  0  0  0  0  0  0  0
   -4.6615    0.6007  -17.2558 H   0  0  0  0  0  0  0  0  0  0  0  0
   -7.7856   -1.7010  -18.6527 H   0  0  0  0  0  0  0  0  0  0  0  0
   -7.3359   -2.7444  -21.5801 C   0  0  0  0  0  0  0  0  0  0  0  0
   -8.5742   -3.0211  -22.4433 C   0  0  2  0  0  0  0  0  0  0  0  0
   -8.3531   -4.0750  -23.5155 C   0  0  0  0  0  0  0  0  0  0  0  0
   -8.1216   -5.3247  -22.9099 O   0  0  0  0  0  0  0  0  0  0  0  0
   -7.6098   -6.2934  -23.8136 C   0  0  0  0  0  0  0  0  0  0  0  0
   -8.1451   -7.6511  -23.4030 C   0  0  0  0  0  0  0  0  0  0  0  0
   -9.2272   -7.7152  -23.4984 H   0  0  0  0  0  0  0  0  0  0  0  0
   -7.8668   -7.8479  -22.3633 H   0  0  0  0  0  0  0  0  0  0  0  0
   -7.7021   -8.4131  -24.0471 H   0  0  0  0  0  0  0  0  0  0  0  0
   -6.0862   -6.3191  -23.7864 C   0  0  0  0  0  0  0  0  0  0  0  0
   -5.7279   -7.0970  -24.4704 H   0  0  0  0  0  0  0  0  0  0  0  0
   -5.7463   -6.5666  -22.7758 H   0  0  0  0  0  0  0  0  0  0  0  0
   -5.6394   -5.3639  -24.0826 H   0  0  0  0  0  0  0  0  0  0  0  0
   -7.9507   -6.0494  -24.8336 H   0  0  0  0  0  0  0  0  0  0  0  0
   -7.4870   -3.7878  -24.1369 H   0  0  0  0  0  0  0  0  0  0  0  0
   -9.2370   -4.1272  -24.1767 H   0  0  0  0  0  0  0  0  0  0  0  0
   -9.3466   -3.4078  -21.7767 H   0  0  0  0  0  0  0  0  0  0  0  0
   -6.3918   -2.9299  -22.1164 H   0  0  0  0  0  0  0  0  0  0  0  0
   -7.3142   -3.3584  -20.6809 H   0  0  0  0  0  0  0  0  0  0  0  0
  -10.5334   -1.4846  -23.1446 C   0  0  0  0  0  0  0  0  0  0  0  0
  -11.4304   -2.1659  -22.3088 C   0  0  0  0  0  0  0  0  0  0  0  0
  -12.7959   -1.9807  -22.4306 C   0  0  0  0  0  0  0  0  0  0  0  0
  -13.8468   -2.7784  -21.2888 Cl  0  0  0  0  0  0  0  0  0  0  0  0
  -13.3345   -1.1978  -23.4519 C   0  0  0  0  0  0  0  0  0  0  0  0
  -12.4608   -0.5366  -24.2953 C   0  0  0  0  0  0  0  0  0  0  0  0
  -11.0789   -0.6251  -24.1082 C   0  0  0  0  0  0  0  0  0  0  0  0
  -10.1905    0.2218  -24.9699 C   0  0  0  0  0  0  0  0  0  0  0  0
  -10.6307    1.1249  -25.6722 O   0  0  0  0  0  0  0  0  0  0  0  0
  -12.8311    0.0974  -25.0950 H   0  0  0  0  0  0  0  0  0  0  0  0
  -14.4073   -1.1042  -23.5789 H   0  0  0  0  0  0  0  0  0  0  0  0
  -11.0823   -2.8495  -21.5460 H   0  0  0  0  0  0  0  0  0  0  0  0
   -7.3008   -1.2934  -24.2861 H   0  0  0  0  0  0  0  0  0  0  0  0
   -8.6371   -2.1435  -25.0967 H   0  0  0  0  0  0  0  0  0  0  0  0
   -7.3068    0.1472  -26.3098 H   0  0  0  0  0  0  0  0  0  0  0  0
   -8.5689    1.3929  -26.3211 H   0  0  0  0  0  0  0  0  0  0  0  0
   -8.6917    2.6102  -24.0376 H   0  0  0  0  0  0  0  0  0  0  0  0
   -6.5110    2.7572  -22.3670 H   0  0  0  0  0  0  0  0  0  0  0  0
   -7.6190    4.1315  -22.6612 H   0  0  0  0  0  0  0  0  0  0  0  0
   -6.1338    3.9624  -23.6227 H   0  0  0  0  0  0  0  0  0  0  0  0
  1  2  1  0
  2  3  1  0
  3  4  2  0
  3  5  1  0
  5  6  1  0
  6  7  1  0
  8  7  1  6
  8  9  1  0
  9 10  2  0
  9 11  1  0
 11 12  1  0
 12 13  2  0
 13 14  1  0
 14 15  2  0
 15 16  1  0
 16 17  2  0
 17 18  1  0
 18 19  2  0
 19 20  1  0
 20 21  2  0
 20 22  1  0
 19 23  1  0
 18 24  1  0
 17 25  1  0
 15 26  1  0
 13 27  1  0
 11 28  1  0
 28 29  1  0
 29 30  1  0
 30 31  1  0
 31 32  1  0
 32 33  1  0
 33 34  1  0
 33 35  1  0
 33 36  1  0
 32 37  1  0
 37 38  1  0
 37 39  1  0
 37 40  1  0
 32 41  1  0
 30 42  1  0
 30 43  1  0
 29 44  1  1
 28 45  1  0
 28 46  1  0
  8 47  1  0
 47 48  2  0
 48 49  1  0
 49 50  1  0
 49 51  2  0
 51 52  1  0
 52 53  2  0
 53 54  1  0
 54 55  2  0
 52 56  1  0
 51 57  1  0
 48 58  1  0
  7 59  1  0
  7 60  1  0
  5 61  1  0
  5 62  1  0
  2 63  1  0
  1 64  1  0
  1 65  1  0
  1 66  1  0
 54  6  1  0
 29  8  1  0
 53 47  1  0
 21 12  1  0
 21 16  1  0
M  END
>  <cnnaffinities>  (33) 
[7.02197, 7.03605, 6.63156]

>  <score>  (33) 
7.02197

>  <index>  (33) 
34

>  <Smiles>  (33) 
C(N(C(=O)C(N1C([C@@]2(C(=O)N(c3c(nc(c4c(c(c(c(c34)[H])[H])[H])[H])[H])[H])C([C@@]2(C(OC(C([H])([H])[H])(C([H])([H])[H])[H])([H])[H])[H])([H])[H])c2c(c(Cl)c(c(c2C1=O)[H])[H])[H])([H])[H])([H])[H])[H])([H])([H])[H]

>  <h>  (33) 
<NA>

>  <Training>  (33) 
True

>  <Success>  (33) 
True

>  <enamine_searched>  (33) 
False

>  <enamine_id>  (33) 
nan

$$$$

     RDKit          3D

 40 42  0  0  0  0  0  0  0  0999 V2000
   -8.9614    0.3597  -21.0190 O   0  0  0  0  0  0  0  0  0  0  0  0
   -8.2760   -0.2698  -21.8006 C   0  0  0  0  0  0  0  0  0  0  0  0
   -7.4116   -1.4230  -21.2848 C   0  0  0  0  0  0  0  0  0  0  0  0
   -6.5513   -0.8575  -20.1774 C   0  0  0  0  0  0  0  0  0  0  0  0
   -6.8728   -1.0502  -18.8586 C   0  0  0  0  0  0  0  0  0  0  0  0
   -6.1952   -0.5360  -17.7977 N   0  0  0  0  0  0  0  0  0  0  0  0
   -5.1622    0.2235  -18.0663 C   0  0  0  0  0  0  0  0  0  0  0  0
   -4.7272    0.5351  -19.3830 C   0  0  0  0  0  0  0  0  0  0  0  0
   -3.6076    1.3673  -19.6248 C   0  0  0  0  0  0  0  0  0  0  0  0
   -3.2146    1.6619  -20.9003 C   0  0  0  0  0  0  0  0  0  0  0  0
   -3.9336    1.1281  -21.9976 C   0  0  0  0  0  0  0  0  0  0  0  0
   -5.0182    0.3161  -21.7882 C   0  0  0  0  0  0  0  0  0  0  0  0
   -5.4467   -0.0057  -20.4741 C   0  0  0  0  0  0  0  0  0  0  0  0
   -5.5482   -0.0955  -22.6419 H   0  0  0  0  0  0  0  0  0  0  0  0
   -3.6177    1.3587  -23.0103 H   0  0  0  0  0  0  0  0  0  0  0  0
   -2.3623    2.3088  -21.0791 H   0  0  0  0  0  0  0  0  0  0  0  0
   -3.0800    1.7728  -18.7651 H   0  0  0  0  0  0  0  0  0  0  0  0
   -4.6126    0.6276  -17.2142 H   0  0  0  0  0  0  0  0  0  0  0  0
   -7.7265   -1.6639  -18.5764 H   0  0  0  0  0  0  0  0  0  0  0  0
   -8.0732   -2.1865  -20.8568 H   0  0  0  0  0  0  0  0  0  0  0  0
   -6.8233   -1.8663  -22.0995 H   0  0  0  0  0  0  0  0  0  0  0  0
   -8.1634    0.0934  -23.1294 N   0  0  0  0  0  0  0  0  0  0  0  0
   -8.2618   -0.8224  -24.2571 C   0  0  0  0  0  0  0  0  0  0  0  0
   -7.2845   -0.4229  -25.3588 C   0  0  0  0  0  0  0  0  0  0  0  0
   -7.4969    1.0385  -25.7574 C   0  0  0  0  0  0  0  0  0  0  0  0
   -6.5031    1.4552  -26.8247 C   0  0  0  0  0  0  0  0  0  0  0  0
   -5.2285    1.3559  -26.3816 F   0  0  0  0  0  0  0  0  0  0  0  0
   -6.6094    0.6793  -27.9239 F   0  0  0  0  0  0  0  0  0  0  0  0
   -6.6979    2.7319  -27.2137 F   0  0  0  0  0  0  0  0  0  0  0  0
   -7.4048    1.9419  -24.5258 C   0  0  0  0  0  0  0  0  0  0  0  0
   -8.3918    1.4943  -23.4491 C   0  0  0  0  0  0  0  0  0  0  0  0
   -8.2632    2.0401  -22.5130 H   0  0  0  0  0  0  0  0  0  0  0  0
   -9.4262    1.6698  -23.7847 H   0  0  0  0  0  0  0  0  0  0  0  0
   -7.5945    2.9791  -24.8093 H   0  0  0  0  0  0  0  0  0  0  0  0
   -6.3846    1.9006  -24.1191 H   0  0  0  0  0  0  0  0  0  0  0  0
   -8.4838    1.1593  -26.2285 H   0  0  0  0  0  0  0  0  0  0  0  0
   -6.2576   -0.5488  -24.9946 H   0  0  0  0  0  0  0  0  0  0  0  0
   -7.4083   -1.0689  -26.2320 H   0  0  0  0  0  0  0  0  0  0  0  0
   -8.0739   -1.8294  -23.8852 H   0  0  0  0  0  0  0  0  0  0  0  0
   -9.2835   -0.8113  -24.6778 H   0  0  0  0  0  0  0  0  0  0  0  0
  1  2  2  0
  2  3  1  0
  3  4  1  0
  4  5  2  0
  5  6  1  0
  6  7  2  0
  7  8  1  0
  8  9  2  0
  9 10  1  0
 10 11  2  0
 11 12  1  0
 12 13  2  0
 12 14  1  0
 11 15  1  0
 10 16  1  0
  9 17  1  0
  7 18  1  0
  5 19  1  0
  3 20  1  0
  3 21  1  0
  2 22  1  0
 22 23  1  0
 23 24  1  0
 24 25  1  0
 25 26  1  0
 26 27  1  0
 26 28  1  0
 26 29  1  0
 25 30  1  0
 30 31  1  0
 31 32  1  0
 31 33  1  0
 30 34  1  0
 30 35  1  0
 25 36  1  0
 24 37  1  0
 24 38  1  0
 23 39  1  0
 23 40  1  0
 13  4  1  0
 31 22  1  0
 13  8  1  0
M  END
>  <cnnaffinities>  (34) 
[5.12396, 5.12397, 5.12399, 5.12393, 5.12396, 5.12396, 5.12399, 5.124, 5.12399, 5.12399, 5.12388, 5.14302, 5.1429, 5.14297, 5.14284]

>  <score>  (34) 
5.12396

>  <index>  (34) 
35

>  <Smiles>  (34) 
O=C(C(c1c(nc(c2c(c(c(c(c12)[H])[H])[H])[H])[H])[H])([H])[H])N1C(C(C(C(F)(F)F)(C(C1([H])[H])([H])[H])[H])([H])[H])([H])[H]

>  <h>  (34) 
<NA>

>  <Training>  (34) 
True

>  <Success>  (34) 
True

>  <enamine_searched>  (34) 
False

>  <enamine_id>  (34) 
nan

$$$$

     RDKit          3D

 47 50  0  0  0  0  0  0  0  0999 V2000
   -6.0896   -3.4679  -21.2143 O   0  0  0  0  0  0  0  0  0  0  0  0
   -6.6452   -2.6591  -21.9364 C   0  0  0  0  0  0  0  0  0  0  0  0
   -7.3865   -1.4613  -21.2907 C   0  0  0  0  0  0  0  0  0  0  0  0
   -6.5774   -0.8244  -20.1794 C   0  0  0  0  0  0  0  0  0  0  0  0
   -6.8721   -1.0464  -18.8585 C   0  0  0  0  0  0  0  0  0  0  0  0
   -6.1875   -0.5422  -17.7932 N   0  0  0  0  0  0  0  0  0  0  0  0
   -5.1586    0.2244  -18.0624 C   0  0  0  0  0  0  0  0  0  0  0  0
   -4.7226    0.5357  -19.3786 C   0  0  0  0  0  0  0  0  0  0  0  0
   -3.5934    1.3593  -19.6210 C   0  0  0  0  0  0  0  0  0  0  0  0
   -3.1942    1.6373  -20.9002 C   0  0  0  0  0  0  0  0  0  0  0  0
   -3.9096    1.0968  -21.9928 C   0  0  0  0  0  0  0  0  0  0  0  0
   -5.0059    0.2969  -21.7866 C   0  0  0  0  0  0  0  0  0  0  0  0
   -5.4477   -0.0028  -20.4712 C   0  0  0  0  0  0  0  0  0  0  0  0
   -5.5365   -0.1126  -22.6422 H   0  0  0  0  0  0  0  0  0  0  0  0
   -3.5892    1.3215  -23.0051 H   0  0  0  0  0  0  0  0  0  0  0  0
   -2.3334    2.2744  -21.0876 H   0  0  0  0  0  0  0  0  0  0  0  0
   -3.0574    1.7715  -18.7691 H   0  0  0  0  0  0  0  0  0  0  0  0
   -4.6033    0.6300  -17.2140 H   0  0  0  0  0  0  0  0  0  0  0  0
   -7.7207   -1.6704  -18.5836 H   0  0  0  0  0  0  0  0  0  0  0  0
   -8.3124   -1.8623  -20.8614 H   0  0  0  0  0  0  0  0  0  0  0  0
   -7.6896   -0.7091  -22.0273 H   0  0  0  0  0  0  0  0  0  0  0  0
   -6.6116   -2.7890  -23.3142 N   0  0  0  0  0  0  0  0  0  0  0  0
   -5.5559   -3.6026  -23.9113 C   0  0  0  0  0  0  0  0  0  0  0  0
   -6.0962   -4.6262  -24.9083 C   0  0  0  0  0  0  0  0  0  0  0  0
   -7.0950   -4.0159  -25.9087 C   0  0  0  0  0  0  0  0  0  0  0  0
   -7.2799   -2.5176  -25.6779 C   0  0  0  0  0  0  0  0  0  0  0  0
   -7.5704   -2.1510  -24.2124 C   0  0  1  0  0  0  0  0  0  0  0  0
   -9.0164   -2.4556  -23.8368 C   0  0  0  0  0  0  0  0  0  0  0  0
   -9.4030   -3.7221  -23.4010 C   0  0  0  0  0  0  0  0  0  0  0  0
  -10.7327   -3.9873  -23.0943 C   0  0  0  0  0  0  0  0  0  0  0  0
  -11.7025   -3.0007  -23.2277 C   0  0  0  0  0  0  0  0  0  0  0  0
  -11.3333   -1.7418  -23.6870 C   0  0  0  0  0  0  0  0  0  0  0  0
  -10.0003   -1.4766  -23.9943 C   0  0  0  0  0  0  0  0  0  0  0  0
   -9.7325   -0.4895  -24.3641 H   0  0  0  0  0  0  0  0  0  0  0  0
  -12.0854   -0.9658  -23.7989 H   0  0  0  0  0  0  0  0  0  0  0  0
  -12.7365   -3.2176  -22.9739 H   0  0  0  0  0  0  0  0  0  0  0  0
  -11.0157   -4.9686  -22.7386 H   0  0  0  0  0  0  0  0  0  0  0  0
   -8.6605   -4.5076  -23.2912 H   0  0  0  0  0  0  0  0  0  0  0  0
   -7.4408   -1.0636  -24.1367 H   0  0  0  0  0  0  0  0  0  0  0  0
   -6.4026   -1.9660  -26.0307 H   0  0  0  0  0  0  0  0  0  0  0  0
   -8.1068   -2.1552  -26.2909 H   0  0  0  0  0  0  0  0  0  0  0  0
   -8.0666   -4.5161  -25.8210 H   0  0  0  0  0  0  0  0  0  0  0  0
   -6.7642   -4.1823  -26.9395 H   0  0  0  0  0  0  0  0  0  0  0  0
   -5.2517   -5.0748  -25.4392 H   0  0  0  0  0  0  0  0  0  0  0  0
   -6.5704   -5.4443  -24.3601 H   0  0  0  0  0  0  0  0  0  0  0  0
   -4.8321   -2.9433  -24.4108 H   0  0  0  0  0  0  0  0  0  0  0  0
   -5.0277   -4.0983  -23.1000 H   0  0  0  0  0  0  0  0  0  0  0  0
  1  2  2  0
  2  3  1  0
  3  4  1  0
  4  5  2  0
  5  6  1  0
  6  7  2  0
  7  8  1  0
  8  9  2  0
  9 10  1  0
 10 11  2  0
 11 12  1  0
 12 13  2  0
 12 14  1  0
 11 15  1  0
 10 16  1  0
  9 17  1  0
  7 18  1  0
  5 19  1  0
  3 20  1  0
  3 21  1  0
  2 22  1  0
 22 23  1  0
 23 24  1  0
 24 25  1  0
 25 26  1  0
 26 27  1  0
 27 28  1  0
 28 29  2  0
 29 30  1  0
 30 31  2  0
 31 32  1  0
 32 33  2  0
 33 34  1  0
 32 35  1  0
 31 36  1  0
 30 37  1  0
 29 38  1  0
 27 39  1  6
 26 40  1  0
 26 41  1  0
 25 42  1  0
 25 43  1  0
 24 44  1  0
 24 45  1  0
 23 46  1  0
 23 47  1  0
 13  4  1  0
 27 22  1  0
 33 28  1  0
 13  8  1  0
M  END
>  <cnnaffinities>  (35) 
[5.63592, 5.62642]

>  <score>  (35) 
5.63592

>  <index>  (35) 
36

>  <Smiles>  (35) 
O=C(C(c1c(nc(c2c(c(c(c(c12)[H])[H])[H])[H])[H])[H])([H])[H])N1C(C(C(C([C@]1(c1c(c(c(c(c1[H])[H])[H])[H])[H])[H])([H])[H])([H])[H])([H])[H])([H])[H]

>  <h>  (35) 
<NA>

>  <Training>  (35) 
True

>  <Success>  (35) 
True

>  <enamine_searched>  (35) 
False

>  <enamine_id>  (35) 
nan

$$$$

     RDKit          3D

 56 60  0  0  0  0  0  0  0  0999 V2000
   -8.1789    4.5166  -24.1442 C   0  0  0  0  0  0  0  0  0  0  0  0
   -8.2213    3.3287  -24.9700 N   0  0  0  0  0  0  0  0  0  0  0  0
   -7.4037    2.2839  -24.6755 C   0  0  0  0  0  0  0  0  0  0  0  0
   -6.5684    2.3189  -23.7893 O   0  0  0  0  0  0  0  0  0  0  0  0
   -7.6071    1.0494  -25.5559 C   0  0  0  0  0  0  0  0  0  0  0  0
   -8.5350    0.1167  -24.9368 N   0  0  0  0  0  0  0  0  0  0  0  0
   -8.0655   -1.1548  -24.4070 C   0  0  0  0  0  0  0  0  0  0  0  0
   -8.8221   -1.5527  -23.1055 C   0  0  2  0  0  0  0  0  0  0  0  0
   -8.3612   -0.6591  -21.9225 C   0  0  0  0  0  0  0  0  0  0  0  0
   -8.7211    0.4600  -21.6396 O   0  0  0  0  0  0  0  0  0  0  0  0
   -7.4194   -1.3752  -21.2121 N   0  0  0  0  0  0  0  0  0  0  0  0
   -6.6333   -0.8007  -20.1896 C   0  0  0  0  0  0  0  0  0  0  0  0
   -6.9263   -1.0761  -18.8795 C   0  0  0  0  0  0  0  0  0  0  0  0
   -6.2433   -0.5844  -17.8171 N   0  0  0  0  0  0  0  0  0  0  0  0
   -5.2176    0.1901  -18.0816 C   0  0  0  0  0  0  0  0  0  0  0  0
   -4.7767    0.5155  -19.3957 C   0  0  0  0  0  0  0  0  0  0  0  0
   -3.6392    1.3355  -19.6165 C   0  0  0  0  0  0  0  0  0  0  0  0
   -3.2170    1.6081  -20.8856 C   0  0  0  0  0  0  0  0  0  0  0  0
   -3.9157    1.0840  -21.9974 C   0  0  0  0  0  0  0  0  0  0  0  0
   -5.0276    0.2983  -21.8124 C   0  0  0  0  0  0  0  0  0  0  0  0
   -5.4896   -0.0002  -20.5001 C   0  0  0  0  0  0  0  0  0  0  0  0
   -5.5669   -0.0748  -22.6807 H   0  0  0  0  0  0  0  0  0  0  0  0
   -3.5838    1.3203  -23.0035 H   0  0  0  0  0  0  0  0  0  0  0  0
   -2.3432    2.2325  -21.0473 H   0  0  0  0  0  0  0  0  0  0  0  0
   -3.1245    1.7338  -18.7458 H   0  0  0  0  0  0  0  0  0  0  0  0
   -4.6711    0.6023  -17.2338 H   0  0  0  0  0  0  0  0  0  0  0  0
   -7.7704   -1.7273  -18.6552 H   0  0  0  0  0  0  0  0  0  0  0  0
   -7.1898   -2.7238  -21.6770 C   0  0  0  0  0  0  0  0  0  0  0  0
   -8.3777   -2.9662  -22.6135 C   0  0  2  0  0  0  0  0  0  0  0  0
   -8.1050   -3.9966  -23.6994 C   0  0  0  0  0  0  0  0  0  0  0  0
   -7.9306   -4.9814  -23.2530 H   0  0  0  0  0  0  0  0  0  0  0  0
   -8.9590   -4.0629  -24.3833 H   0  0  0  0  0  0  0  0  0  0  0  0
   -7.2154   -3.7239  -24.2820 H   0  0  0  0  0  0  0  0  0  0  0  0
   -9.1784   -3.3489  -21.9759 H   0  0  0  0  0  0  0  0  0  0  0  0
   -7.1768   -3.4208  -20.8328 H   0  0  0  0  0  0  0  0  0  0  0  0
   -6.2204   -2.8214  -22.1907 H   0  0  0  0  0  0  0  0  0  0  0  0
  -10.3104   -1.3949  -23.3601 C   0  0  0  0  0  0  0  0  0  0  0  0
  -11.2496   -2.0732  -22.5739 C   0  0  0  0  0  0  0  0  0  0  0  0
  -12.6057   -1.8524  -22.7264 C   0  0  0  0  0  0  0  0  0  0  0  0
  -13.0767   -1.0236  -23.7467 C   0  0  0  0  0  0  0  0  0  0  0  0
  -12.1691   -0.3796  -24.5667 C   0  0  0  0  0  0  0  0  0  0  0  0
  -10.7973   -0.5141  -24.3370 C   0  0  0  0  0  0  0  0  0  0  0  0
   -9.8624    0.3783  -25.0955 C   0  0  0  0  0  0  0  0  0  0  0  0
  -10.2573    1.3229  -25.7796 O   0  0  0  0  0  0  0  0  0  0  0  0
  -12.4892    0.2028  -25.4234 H   0  0  0  0  0  0  0  0  0  0  0  0
  -14.1424   -0.8539  -23.8730 H   0  0  0  0  0  0  0  0  0  0  0  0
  -13.3012   -2.3427  -22.0518 H   0  0  0  0  0  0  0  0  0  0  0  0
  -10.9352   -2.7801  -21.8122 H   0  0  0  0  0  0  0  0  0  0  0  0
   -6.9899   -1.0587  -24.2091 H   0  0  0  0  0  0  0  0  0  0  0  0
   -8.2095   -1.9437  -25.1624 H   0  0  0  0  0  0  0  0  0  0  0  0
   -6.6521    0.5429  -25.7123 H   0  0  0  0  0  0  0  0  0  0  0  0
   -8.0048    1.3549  -26.5255 H   0  0  0  0  0  0  0  0  0  0  0  0
   -9.0760    3.0879  -25.4502 H   0  0  0  0  0  0  0  0  0  0  0  0
   -7.1515    4.8872  -24.0945 H   0  0  0  0  0  0  0  0  0  0  0  0
   -8.5240    4.3073  -23.1250 H   0  0  0  0  0  0  0  0  0  0  0  0
   -8.8139    5.2757  -24.6037 H   0  0  0  0  0  0  0  0  0  0  0  0
  1  2  1  0
  2  3  1  0
  3  4  2  0
  3  5  1  0
  5  6  1  0
  6  7  1  0
  8  7  1  6
  8  9  1  0
  9 10  2  0
  9 11  1  0
 11 12  1  0
 12 13  2  0
 13 14  1  0
 14 15  2  0
 15 16  1  0
 16 17  2  0
 17 18  1  0
 18 19  2  0
 19 20  1  0
 20 21  2  0
 20 22  1  0
 19 23  1  0
 18 24  1  0
 17 25  1  0
 15 26  1  0
 13 27  1  0
 11 28  1  0
 28 29  1  0
 29 30  1  0
 30 31  1  0
 30 32  1  0
 30 33  1  0
 29 34  1  1
 28 35  1  0
 28 36  1  0
  8 37  1  0
 37 38  2  0
 38 39  1  0
 39 40  2  0
 40 41  1  0
 41 42  2  0
 42 43  1  0
 43 44  2  0
 41 45  1  0
 40 46  1  0
 39 47  1  0
 38 48  1  0
  7 49  1  0
  7 50  1  0
  5 51  1  0
  5 52  1  0
  2 53  1  0
  1 54  1  0
  1 55  1  0
  1 56  1  0
 43  6  1  0
 29  8  1  0
 42 37  1  0
 21 12  1  0
 21 16  1  0
M  END
>  <cnnaffinities>  (36) 
[6.3804, 6.20447, 5.85042]

>  <score>  (36) 
6.3804

>  <index>  (36) 
37

>  <Smiles>  (36) 
C(N(C(=O)C(N1C([C@@]2(C(=O)N(c3c(nc(c4c(c(c(c(c34)[H])[H])[H])[H])[H])[H])C([C@@]2(C([H])([H])[H])[H])([H])[H])c2c(c(c(c(c2C1=O)[H])[H])[H])[H])([H])[H])([H])[H])[H])([H])([H])[H]

>  <h>  (36) 
<NA>

>  <Training>  (36) 
True

>  <Success>  (36) 
True

>  <enamine_searched>  (36) 
False

>  <enamine_id>  (36) 
nan

$$$$

     RDKit          3D

 46 48  0  0  0  0  0  0  0  0999 V2000
   -8.1582   -4.6950  -26.5425 C   0  0  0  0  0  0  0  0  0  0  0  0
   -8.6539   -4.9602  -25.1187 C   0  0  1  0  0  0  0  0  0  0  0  0
   -7.5895   -5.5253  -24.1815 C   0  0  0  0  0  0  0  0  0  0  0  0
   -6.6147   -4.5189  -23.5537 C   0  0  1  0  0  0  0  0  0  0  0  0
   -5.4119   -4.1594  -24.4401 C   0  0  0  0  0  0  0  0  0  0  0  0
   -4.6104   -3.7369  -23.8270 H   0  0  0  0  0  0  0  0  0  0  0  0
   -5.6630   -3.4312  -25.2143 H   0  0  0  0  0  0  0  0  0  0  0  0
   -5.0158   -5.0545  -24.9372 H   0  0  0  0  0  0  0  0  0  0  0  0
   -7.3246   -3.3383  -23.0137 N   0  0  0  0  0  0  0  0  0  0  0  0
   -6.7223   -2.7037  -21.9373 C   0  0  0  0  0  0  0  0  0  0  0  0
   -5.6796   -3.1242  -21.4621 O   0  0  0  0  0  0  0  0  0  0  0  0
   -7.4064   -1.4701  -21.2810 C   0  0  0  0  0  0  0  0  0  0  0  0
   -6.5778   -0.8345  -20.1840 C   0  0  0  0  0  0  0  0  0  0  0  0
   -6.8723   -1.0481  -18.8625 C   0  0  0  0  0  0  0  0  0  0  0  0
   -6.1897   -0.5435  -17.7969 N   0  0  0  0  0  0  0  0  0  0  0  0
   -5.1596    0.2230  -18.0638 C   0  0  0  0  0  0  0  0  0  0  0  0
   -4.7224    0.5310  -19.3799 C   0  0  0  0  0  0  0  0  0  0  0  0
   -3.5943    1.3579  -19.6221 C   0  0  0  0  0  0  0  0  0  0  0  0
   -3.1928    1.6348  -20.9011 C   0  0  0  0  0  0  0  0  0  0  0  0
   -3.9050    1.0921  -21.9935 C   0  0  0  0  0  0  0  0  0  0  0  0
   -5.0007    0.2900  -21.7860 C   0  0  0  0  0  0  0  0  0  0  0  0
   -5.4453   -0.0132  -20.4727 C   0  0  0  0  0  0  0  0  0  0  0  0
   -5.5310   -0.1254  -22.6378 H   0  0  0  0  0  0  0  0  0  0  0  0
   -3.5807    1.3138  -23.0058 H   0  0  0  0  0  0  0  0  0  0  0  0
   -2.3310    2.2717  -21.0873 H   0  0  0  0  0  0  0  0  0  0  0  0
   -3.0581    1.7719  -18.7704 H   0  0  0  0  0  0  0  0  0  0  0  0
   -4.6039    0.6295  -17.2152 H   0  0  0  0  0  0  0  0  0  0  0  0
   -7.7207   -1.6716  -18.5861 H   0  0  0  0  0  0  0  0  0  0  0  0
   -7.6710   -0.7133  -22.0317 H   0  0  0  0  0  0  0  0  0  0  0  0
   -8.3586   -1.8080  -20.8481 H   0  0  0  0  0  0  0  0  0  0  0  0
   -8.4100   -2.7194  -23.7934 C   0  0  1  0  0  0  0  0  0  0  0  0
   -7.9392   -1.6594  -24.8005 C   0  0  0  0  0  0  0  0  0  0  0  0
   -7.4432   -2.0880  -25.6753 H   0  0  0  0  0  0  0  0  0  0  0  0
   -8.7983   -1.0846  -25.1697 H   0  0  0  0  0  0  0  0  0  0  0  0
   -7.2435   -0.9499  -24.3423 H   0  0  0  0  0  0  0  0  0  0  0  0
   -9.3298   -3.7776  -24.4247 C   0  0  0  0  0  0  0  0  0  0  0  0
   -9.9794   -4.1697  -23.6350 H   0  0  0  0  0  0  0  0  0  0  0  0
   -9.9961   -3.2773  -25.1354 H   0  0  0  0  0  0  0  0  0  0  0  0
   -9.0329   -2.1946  -23.0632 H   0  0  0  0  0  0  0  0  0  0  0  0
   -6.1938   -5.0179  -22.6794 H   0  0  0  0  0  0  0  0  0  0  0  0
   -8.0924   -6.0553  -23.3654 H   0  0  0  0  0  0  0  0  0  0  0  0
   -7.0109   -6.2882  -24.7143 H   0  0  0  0  0  0  0  0  0  0  0  0
   -9.4276   -5.7358  -25.2235 H   0  0  0  0  0  0  0  0  0  0  0  0
   -7.9238   -5.6406  -27.0466 H   0  0  0  0  0  0  0  0  0  0  0  0
   -8.9306   -4.1942  -27.1376 H   0  0  0  0  0  0  0  0  0  0  0  0
   -7.2552   -4.0807  -26.5811 H   0  0  0  0  0  0  0  0  0  0  0  0
  1  2  1  0
  2  3  1  0
  3  4  1  0
  4  5  1  0
  5  6  1  0
  5  7  1  0
  5  8  1  0
  4  9  1  0
  9 10  1  0
 10 11  2  0
 10 12  1  0
 12 13  1  0
 13 14  2  0
 14 15  1  0
 15 16  2  0
 16 17  1  0
 17 18  2  0
 18 19  1  0
 19 20  2  0
 20 21  1  0
 21 22  2  0
 21 23  1  0
 20 24  1  0
 19 25  1  0
 18 26  1  0
 16 27  1  0
 14 28  1  0
 12 29  1  0
 12 30  1  0
  9 31  1  0
 31 32  1  0
 32 33  1  0
 32 34  1  0
 32 35  1  0
 31 36  1  0
 36 37  1  0
 36 38  1  0
 31 39  1  1
  4 40  1  1
  3 41  1  0
  3 42  1  0
  2 43  1  6
  1 44  1  0
  1 45  1  0
  1 46  1  0
 36  2  1  0
 22 13  1  0
 22 17  1  0
M  END
>  <cnnaffinities>  (37) 
[5.35546]

>  <score>  (37) 
5.35546

>  <index>  (37) 
38

>  <Smiles>  (37) 
C([C@]1(C([C@@](C([H])([H])[H])(N(C(=O)C(c2c(nc(c3c(c(c(c(c23)[H])[H])[H])[H])[H])[H])([H])[H])[C@@](C([H])([H])[H])(C1([H])[H])[H])[H])([H])[H])[H])([H])([H])[H]

>  <h>  (37) 
<NA>

>  <Training>  (37) 
True

>  <Success>  (37) 
True

>  <enamine_searched>  (37) 
False

>  <enamine_id>  (37) 
nan

$$$$

     RDKit          3D

 40 44  0  0  0  0  0  0  0  0999 V2000
   -7.2396    0.9292  -25.5957 C   0  0  0  0  0  0  0  0  0  0  0  0
   -6.5128   -0.3946  -25.4089 C   0  0  0  0  0  0  0  0  0  0  0  0
   -5.3031   -0.5111  -25.5528 O   0  0  0  0  0  0  0  0  0  0  0  0
   -7.2739   -1.4750  -25.0819 N   0  0  0  0  0  0  0  0  0  0  0  0
   -6.6392   -2.7657  -24.7367 C   0  0  0  0  0  0  0  0  0  0  0  0
   -7.8112   -3.4855  -24.0460 C   0  0  2  0  0  0  0  0  0  0  0  0
   -9.0041   -2.9601  -24.8622 C   0  0  0  0  0  0  0  0  0  0  0  0
   -8.6624   -1.4869  -24.5553 C   0  0  1  0  0  0  0  0  0  0  0  0
   -8.5652   -1.5553  -23.0861 C   0  0  0  0  0  0  0  0  0  0  0  0
   -8.1663   -0.6128  -22.0827 C   0  0  0  0  0  0  0  0  0  0  0  0
   -8.3491    0.5779  -21.9891 O   0  0  0  0  0  1  0  0  0  0  0  0
   -7.4017   -1.3913  -21.1790 N   0  0  0  0  0  0  0  0  0  0  0  0
   -6.5822   -0.8251  -20.1687 C   0  0  0  0  0  0  0  0  0  0  0  0
   -6.8910   -1.0592  -18.8549 C   0  0  0  0  0  0  0  0  0  0  0  0
   -6.1987   -0.5485  -17.8079 N   0  0  0  0  0  0  0  0  0  0  0  0
   -5.1699    0.2161  -18.0794 C   0  0  0  0  0  0  0  0  0  0  0  0
   -4.7306    0.5305  -19.3971 C   0  0  0  0  0  0  0  0  0  0  0  0
   -3.5964    1.3553  -19.6307 C   0  0  0  0  0  0  0  0  0  0  0  0
   -3.1845    1.6255  -20.9065 C   0  0  0  0  0  0  0  0  0  0  0  0
   -3.8830    1.0714  -22.0047 C   0  0  0  0  0  0  0  0  0  0  0  0
   -4.9769    0.2668  -21.8052 C   0  0  0  0  0  0  0  0  0  0  0  0
   -5.4472   -0.0097  -20.4884 C   0  0  0  0  0  0  0  0  0  0  0  0
   -5.4785   -0.1600  -22.6717 H   0  0  0  0  0  0  0  0  0  0  0  0
   -3.5597    1.2846  -23.0199 H   0  0  0  0  0  0  0  0  0  0  0  0
   -2.3249    2.2669  -21.0858 H   0  0  0  0  0  0  0  0  0  0  0  0
   -3.0766    1.7667  -18.7700 H   0  0  0  0  0  0  0  0  0  0  0  0
   -4.6266    0.6216  -17.2259 H   0  0  0  0  0  0  0  0  0  0  0  0
   -7.7412   -1.6854  -18.5995 H   0  0  0  0  0  0  0  0  0  0  0  0
   -7.2463   -2.7067  -21.6366 C   0  0  0  0  0  0  0  0  0  0  0  0
   -6.5163   -3.5520  -21.1778 O   0  0  0  0  0  0  0  0  0  0  0  0
   -8.0635   -2.7879  -22.7614 N   0  0  0  0  0  0  0  0  0  0  0  0
   -9.2826   -0.6923  -24.9783 H   0  0  0  0  0  0  0  0  0  0  0  0
   -9.9662   -3.2769  -24.4626 H   0  0  0  0  0  0  0  0  0  0  0  0
   -8.9257   -3.1964  -25.9274 H   0  0  0  0  0  0  0  0  0  0  0  0
   -7.7001   -4.5530  -23.9046 H   0  0  0  0  0  0  0  0  0  0  0  0
   -5.7893   -2.6263  -24.0589 H   0  0  0  0  0  0  0  0  0  0  0  0
   -6.2949   -3.2673  -25.6432 H   0  0  0  0  0  0  0  0  0  0  0  0
   -6.4878    1.6579  -25.9019 H   0  0  0  0  0  0  0  0  0  0  0  0
   -7.7266    1.2561  -24.6689 H   0  0  0  0  0  0  0  0  0  0  0  0
   -8.0188    0.8640  -26.3650 H   0  0  0  0  0  0  0  0  0  0  0  0
  1  2  1  0
  2  3  2  0
  2  4  1  0
  4  5  1  0
  5  6  1  0
  6  7  1  0
  7  8  1  0
  8  9  1  0
  9 10  2  0
 10 11  1  0
 10 12  1  0
 12 13  1  0
 13 14  2  0
 14 15  1  0
 15 16  2  0
 16 17  1  0
 17 18  2  0
 18 19  1  0
 19 20  2  0
 20 21  1  0
 21 22  2  0
 21 23  1  0
 20 24  1  0
 19 25  1  0
 18 26  1  0
 16 27  1  0
 14 28  1  0
 12 29  1  0
 29 30  2  0
 29 31  1  0
  8 32  1  1
  7 33  1  0
  7 34  1  0
  6 35  1  1
  5 36  1  0
  5 37  1  0
  1 38  1  0
  1 39  1  0
  1 40  1  0
  8  4  1  0
 31  9  1  0
 31  6  1  0
 22 13  1  0
 22 17  1  0
M  CHG  1  11  -1
M  END
>  <cnnaffinities>  (38) 
[5.40631, 5.52071, 5.36866]

>  <score>  (38) 
5.40631

>  <index>  (38) 
39

>  <Smiles>  (38) 
C(C(=O)N1C([C@@]2(C([C@]1(c1c([O-])n(c3c(nc(c4c(c(c(c(c34)[H])[H])[H])[H])[H])[H])c(=O)n21)[H])([H])[H])[H])([H])[H])([H])([H])[H]

>  <h>  (38) 
<NA>

>  <Training>  (38) 
True

>  <Success>  (38) 
True

>  <enamine_searched>  (38) 
False

>  <enamine_id>  (38) 
nan

$$$$

     RDKit          3D

 40 42  0  0  0  0  0  0  0  0999 V2000
   -6.4973    1.4272  -26.8588 C   0  0  0  0  0  0  0  0  0  0  0  0
   -7.5016    1.0186  -25.7824 C   0  0  0  0  0  0  0  0  0  0  0  0
   -7.4163    1.9179  -24.5541 C   0  0  0  0  0  0  0  0  0  0  0  0
   -8.3903    1.4852  -23.4649 C   0  0  0  0  0  0  0  0  0  0  0  0
   -8.1732    0.0834  -23.1340 N   0  0  0  0  0  0  0  0  0  0  0  0
   -8.3118   -0.2962  -21.8038 C   0  0  0  0  0  0  0  0  0  0  0  0
   -9.0313    0.2968  -21.0304 O   0  0  0  0  0  0  0  0  0  0  0  0
   -7.4207   -1.4248  -21.2798 C   0  0  0  0  0  0  0  0  0  0  0  0
   -6.5615   -0.8446  -20.1746 C   0  0  0  0  0  0  0  0  0  0  0  0
   -6.8739   -1.0435  -18.8563 C   0  0  0  0  0  0  0  0  0  0  0  0
   -6.1917   -0.5360  -17.7943 N   0  0  0  0  0  0  0  0  0  0  0  0
   -5.1587    0.2234  -18.0645 C   0  0  0  0  0  0  0  0  0  0  0  0
   -4.7250    0.5360  -19.3797 C   0  0  0  0  0  0  0  0  0  0  0  0
   -3.6040    1.3683  -19.6234 C   0  0  0  0  0  0  0  0  0  0  0  0
   -3.2136    1.6624  -20.9001 C   0  0  0  0  0  0  0  0  0  0  0  0
   -3.9327    1.1287  -21.9931 C   0  0  0  0  0  0  0  0  0  0  0  0
   -5.0189    0.3169  -21.7851 C   0  0  0  0  0  0  0  0  0  0  0  0
   -5.4492   -0.0036  -20.4720 C   0  0  0  0  0  0  0  0  0  0  0  0
   -5.5491   -0.0917  -22.6391 H   0  0  0  0  0  0  0  0  0  0  0  0
   -3.6169    1.3617  -23.0070 H   0  0  0  0  0  0  0  0  0  0  0  0
   -2.3583    2.3105  -21.0836 H   0  0  0  0  0  0  0  0  0  0  0  0
   -3.0700    1.7774  -18.7683 H   0  0  0  0  0  0  0  0  0  0  0  0
   -4.6060    0.6284  -17.2135 H   0  0  0  0  0  0  0  0  0  0  0  0
   -7.7274   -1.6614  -18.5775 H   0  0  0  0  0  0  0  0  0  0  0  0
   -6.8205   -1.8643  -22.0866 H   0  0  0  0  0  0  0  0  0  0  0  0
   -8.0706   -2.1972  -20.8480 H   0  0  0  0  0  0  0  0  0  0  0  0
   -8.2765   -0.8315  -24.2624 C   0  0  0  0  0  0  0  0  0  0  0  0
   -7.3086   -0.4348  -25.3652 C   0  0  0  0  0  0  0  0  0  0  0  0
   -6.2830   -0.5738  -25.0058 H   0  0  0  0  0  0  0  0  0  0  0  0
   -7.4315   -1.0942  -26.2302 H   0  0  0  0  0  0  0  0  0  0  0  0
   -8.0800   -1.8388  -23.8989 H   0  0  0  0  0  0  0  0  0  0  0  0
   -9.2994   -0.8395  -24.6753 H   0  0  0  0  0  0  0  0  0  0  0  0
   -9.4235    1.6824  -23.7863 H   0  0  0  0  0  0  0  0  0  0  0  0
   -8.2392    2.0555  -22.5483 H   0  0  0  0  0  0  0  0  0  0  0  0
   -6.3948    1.8919  -24.1534 H   0  0  0  0  0  0  0  0  0  0  0  0
   -7.6025    2.9576  -24.8384 H   0  0  0  0  0  0  0  0  0  0  0  0
   -8.5140    1.1190  -26.1978 H   0  0  0  0  0  0  0  0  0  0  0  0
   -5.4702    1.3396  -26.4834 H   0  0  0  0  0  0  0  0  0  0  0  0
   -6.6404    2.4668  -27.1766 H   0  0  0  0  0  0  0  0  0  0  0  0
   -6.5733    0.7873  -27.7462 H   0  0  0  0  0  0  0  0  0  0  0  0
  1  2  1  0
  2  3  1  0
  3  4  1  0
  4  5  1  0
  5  6  1  0
  6  7  2  0
  6  8  1  0
  8  9  1  0
  9 10  2  0
 10 11  1  0
 11 12  2  0
 12 13  1  0
 13 14  2  0
 14 15  1  0
 15 16  2  0
 16 17  1  0
 17 18  2  0
 17 19  1  0
 16 20  1  0
 15 21  1  0
 14 22  1  0
 12 23  1  0
 10 24  1  0
  8 25  1  0
  8 26  1  0
  5 27  1  0
 27 28  1  0
 28 29  1  0
 28 30  1  0
 27 31  1  0
 27 32  1  0
  4 33  1  0
  4 34  1  0
  3 35  1  0
  3 36  1  0
  2 37  1  0
  1 38  1  0
  1 39  1  0
  1 40  1  0
 28  2  1  0
 18  9  1  0
 18 13  1  0
M  END
>  <cnnaffinities>  (39) 
[4.92041, 4.92048, 4.97626, 5.05596, 5.03415, 5.03415, 4.61302, 4.61293, 4.89409]

>  <score>  (39) 
4.92041

>  <index>  (39) 
40

>  <Smiles>  (39) 
C(C1(C(C(N(C(=O)C(c2c(nc(c3c(c(c(c(c23)[H])[H])[H])[H])[H])[H])([H])[H])C(C1([H])[H])([H])[H])([H])[H])([H])[H])[H])([H])([H])[H]

>  <h>  (39) 
<NA>

>  <Training>  (39) 
True

>  <Success>  (39) 
True

>  <enamine_searched>  (39) 
False

>  <enamine_id>  (39) 
nan

$$$$

     RDKit          3D

 67 71  0  0  0  0  0  0  0  0999 V2000
   -7.9380    2.3945  -22.0062 C   0  0  0  0  0  0  0  0  0  0  0  0
   -8.8072    1.9559  -23.0794 N   0  0  0  0  0  0  0  0  0  0  0  0
   -8.3681    1.3783  -24.2194 C   0  0  0  0  0  0  0  0  0  0  0  0
   -7.1903    1.2750  -24.5325 O   0  0  0  0  0  0  0  0  0  0  0  0
   -9.5048    0.7237  -25.0202 C   0  0  0  0  0  0  0  0  0  0  0  0
   -9.9907   -0.4001  -24.2308 N   0  0  0  0  0  0  0  0  0  0  0  0
   -9.0293   -1.4491  -23.9677 C   0  0  0  0  0  0  0  0  0  0  0  0
   -9.2009   -2.0864  -22.5625 C   0  0  2  0  0  0  0  0  0  0  0  0
   -8.6195   -1.1344  -21.4703 C   0  0  0  0  0  0  0  0  0  0  0  0
   -9.1345   -0.1674  -20.9392 O   0  0  0  0  0  0  0  0  0  0  0  0
   -7.3324   -1.5315  -21.1883 N   0  0  0  0  0  0  0  0  0  0  0  0
   -6.5799   -0.9052  -20.1604 C   0  0  0  0  0  0  0  0  0  0  0  0
   -6.9356   -1.0694  -18.8419 C   0  0  0  0  0  0  0  0  0  0  0  0
   -6.2533   -0.5416  -17.7959 N   0  0  0  0  0  0  0  0  0  0  0  0
   -5.2079    0.2013  -18.0677 C   0  0  0  0  0  0  0  0  0  0  0  0
   -4.7522    0.4875  -19.3858 C   0  0  0  0  0  0  0  0  0  0  0  0
   -3.6367    1.3334  -19.6275 C   0  0  0  0  0  0  0  0  0  0  0  0
   -3.2512    1.6276  -20.9062 C   0  0  0  0  0  0  0  0  0  0  0  0
   -3.9547    1.0828  -22.0016 C   0  0  0  0  0  0  0  0  0  0  0  0
   -5.0267    0.2436  -21.7927 C   0  0  0  0  0  0  0  0  0  0  0  0
   -5.4531   -0.0801  -20.4752 C   0  0  0  0  0  0  0  0  0  0  0  0
   -5.5939   -0.1120  -22.6489 H   0  0  0  0  0  0  0  0  0  0  0  0
   -3.6662    1.3426  -23.0157 H   0  0  0  0  0  0  0  0  0  0  0  0
   -2.4124    2.2947  -21.0871 H   0  0  0  0  0  0  0  0  0  0  0  0
   -3.1138    1.7488  -18.7708 H   0  0  0  0  0  0  0  0  0  0  0  0
   -4.6624    0.6240  -17.2228 H   0  0  0  0  0  0  0  0  0  0  0  0
   -7.8032   -1.6717  -18.5794 H   0  0  0  0  0  0  0  0  0  0  0  0
   -6.8881   -2.6602  -21.9841 C   0  0  0  0  0  0  0  0  0  0  0  0
   -8.2252   -3.2939  -22.4222 C   0  0  2  0  0  0  0  0  0  0  0  0
   -8.1888   -4.1382  -23.6947 C   0  0  0  0  0  0  0  0  0  0  0  0
   -7.3998   -5.7144  -23.5393 S   0  0  0  0  0  0  0  0  0  0  0  0
   -7.9273   -6.3812  -22.3586 O   0  0  0  0  0  0  0  0  0  0  0  0
   -7.4788   -6.3636  -24.8403 O   0  0  0  0  0  0  0  0  0  0  0  0
   -5.7987   -5.2916  -23.2327 N   0  0  0  0  0  0  0  0  0  0  0  0
   -5.1174   -4.6649  -24.3675 C   0  0  0  0  0  0  0  0  0  0  0  0
   -5.5120   -3.6594  -24.5556 H   0  0  0  0  0  0  0  0  0  0  0  0
   -4.0713   -4.5576  -24.0783 H   0  0  0  0  0  0  0  0  0  0  0  0
   -5.1895   -5.2634  -25.2856 H   0  0  0  0  0  0  0  0  0  0  0  0
   -5.0454   -6.4110  -22.6583 C   0  0  0  0  0  0  0  0  0  0  0  0
   -4.0797   -6.0142  -22.3326 H   0  0  0  0  0  0  0  0  0  0  0  0
   -4.8835   -7.2355  -23.3699 H   0  0  0  0  0  0  0  0  0  0  0  0
   -5.5974   -6.7845  -21.7941 H   0  0  0  0  0  0  0  0  0  0  0  0
   -7.6830   -3.6241  -24.5176 H   0  0  0  0  0  0  0  0  0  0  0  0
   -9.2080   -4.3744  -24.0269 H   0  0  0  0  0  0  0  0  0  0  0  0
   -8.5747   -3.9261  -21.6009 H   0  0  0  0  0  0  0  0  0  0  0  0
   -6.3056   -2.3323  -22.8631 H   0  0  0  0  0  0  0  0  0  0  0  0
   -6.2638   -3.3329  -21.3947 H   0  0  0  0  0  0  0  0  0  0  0  0
  -10.6797   -2.4168  -22.3971 C   0  0  0  0  0  0  0  0  0  0  0  0
  -11.1287   -3.4430  -21.5524 C   0  0  0  0  0  0  0  0  0  0  0  0
  -12.4672   -3.5023  -21.2058 C   0  0  0  0  0  0  0  0  0  0  0  0
  -12.8705   -4.3770  -20.2684 F   0  0  0  0  0  0  0  0  0  0  0  0
  -13.4339   -2.6615  -21.7346 C   0  0  0  0  0  0  0  0  0  0  0  0
  -13.0220   -1.7682  -22.7001 C   0  0  0  0  0  0  0  0  0  0  0  0
  -11.6730   -1.6533  -23.0399 C   0  0  0  0  0  0  0  0  0  0  0  0
  -11.3322   -0.6294  -24.0811 C   0  0  0  0  0  0  0  0  0  0  0  0
  -12.1846   -0.0128  -24.7001 O   0  0  0  0  0  0  0  0  0  0  0  0
  -13.7283   -1.1182  -23.2004 H   0  0  0  0  0  0  0  0  0  0  0  0
  -14.4531   -2.7237  -21.3661 H   0  0  0  0  0  0  0  0  0  0  0  0
  -10.4609   -4.1830  -21.1236 H   0  0  0  0  0  0  0  0  0  0  0  0
   -8.0369   -1.0018  -24.0461 H   0  0  0  0  0  0  0  0  0  0  0  0
   -9.1216   -2.2204  -24.7456 H   0  0  0  0  0  0  0  0  0  0  0  0
  -10.3507    1.3924  -25.1801 H   0  0  0  0  0  0  0  0  0  0  0  0
   -9.1376    0.4076  -26.0023 H   0  0  0  0  0  0  0  0  0  0  0  0
   -9.7900    1.8748  -22.8768 H   0  0  0  0  0  0  0  0  0  0  0  0
   -8.3990    2.0805  -21.0685 H   0  0  0  0  0  0  0  0  0  0  0  0
   -6.9759    1.8931  -22.1172 H   0  0  0  0  0  0  0  0  0  0  0  0
   -7.7737    3.4788  -22.0121 H   0  0  0  0  0  0  0  0  0  0  0  0
  1  2  1  0
  2  3  1  0
  3  4  2  0
  3  5  1  0
  5  6  1  0
  6  7  1  0
  8  7  1  6
  8  9  1  0
  9 10  2  0
  9 11  1  0
 11 12  1  0
 12 13  2  0
 13 14  1  0
 14 15  2  0
 15 16  1  0
 16 17  2  0
 17 18  1  0
 18 19  2  0
 19 20  1  0
 20 21  2  0
 20 22  1  0
 19 23  1  0
 18 24  1  0
 17 25  1  0
 15 26  1  0
 13 27  1  0
 11 28  1  0
 28 29  1  0
 29 30  1  0
 30 31  1  0
 31 32  2  0
 31 33  2  0
 31 34  1  0
 34 35  1  0
 35 36  1  0
 35 37  1  0
 35 38  1  0
 34 39  1  0
 39 40  1  0
 39 41  1  0
 39 42  1  0
 30 43  1  0
 30 44  1  0
 29 45  1  1
 28 46  1  0
 28 47  1  0
  8 48  1  0
 48 49  2  0
 49 50  1  0
 50 51  1  0
 50 52  2  0
 52 53  1  0
 53 54  2  0
 54 55  1  0
 55 56  2  0
 53 57  1  0
 52 58  1  0
 49 59  1  0
  7 60  1  0
  7 61  1  0
  5 62  1  0
  5 63  1  0
  2 64  1  0
  1 65  1  0
  1 66  1  0
  1 67  1  0
 55  6  1  0
 29  8  1  0
 54 48  1  0
 21 12  1  0
 21 16  1  0
M  END
>  <cnnaffinities>  (40) 
[7.21206, 6.97606]

>  <score>  (40) 
7.21206

>  <index>  (40) 
41

>  <Smiles>  (40) 
C(N(C(=O)C(N1C([C@@]2(C(=O)N(c3c(nc(c4c(c(c(c(c34)[H])[H])[H])[H])[H])[H])C([C@@]2(C(S(=O)(=O)N(C([H])([H])[H])C([H])([H])[H])([H])[H])[H])([H])[H])c2c(c(F)c(c(c2C1=O)[H])[H])[H])([H])[H])([H])[H])[H])([H])([H])[H]

>  <h>  (40) 
<NA>

>  <Training>  (40) 
True

>  <Success>  (40) 
True

>  <enamine_searched>  (40) 
False

>  <enamine_id>  (40) 
nan

$$$$

     RDKit          3D

 67 72  0  0  0  0  0  0  0  0999 V2000
   -7.8494   -3.3429  -29.1147 C   0  0  0  0  0  0  0  0  0  0  0  0
   -8.5193   -2.3929  -28.2558 N   0  0  0  0  0  0  0  0  0  0  0  0
   -7.8587   -1.7398  -27.2712 C   0  0  0  0  0  0  0  0  0  0  0  0
   -6.7089   -1.9903  -26.9400 O   0  0  0  0  0  0  0  0  0  0  0  0
   -8.6837   -0.6266  -26.6242 C   0  0  0  0  0  0  0  0  0  0  0  0
   -9.3131   -1.0490  -25.3905 N   0  0  0  0  0  0  0  0  0  0  0  0
   -8.6231   -0.7255  -24.1563 C   0  0  0  0  0  0  0  0  0  0  0  0
   -9.0398   -1.5677  -22.9361 C   0  0  2  0  0  0  0  0  0  0  0  0
   -8.5234   -0.7785  -21.7081 C   0  0  0  0  0  0  0  0  0  0  0  0
   -8.9572    0.2647  -21.2664 O   0  0  0  0  0  0  0  0  0  0  0  0
   -7.4126   -1.4236  -21.2068 N   0  0  0  0  0  0  0  0  0  0  0  0
   -6.6179   -0.8253  -20.1922 C   0  0  0  0  0  0  0  0  0  0  0  0
   -6.9338   -1.0489  -18.8788 C   0  0  0  0  0  0  0  0  0  0  0  0
   -6.2376   -0.5563  -17.8221 N   0  0  0  0  0  0  0  0  0  0  0  0
   -5.1997    0.2003  -18.0852 C   0  0  0  0  0  0  0  0  0  0  0  0
   -4.7623    0.5209  -19.4031 C   0  0  0  0  0  0  0  0  0  0  0  0
   -3.6329    1.3512  -19.6311 C   0  0  0  0  0  0  0  0  0  0  0  0
   -3.2357    1.6460  -20.9064 C   0  0  0  0  0  0  0  0  0  0  0  0
   -3.9478    1.1260  -22.0106 C   0  0  0  0  0  0  0  0  0  0  0  0
   -5.0448    0.3229  -21.8153 C   0  0  0  0  0  0  0  0  0  0  0  0
   -5.4823   -0.0050  -20.5005 C   0  0  0  0  0  0  0  0  0  0  0  0
   -5.5874   -0.0642  -22.6718 H   0  0  0  0  0  0  0  0  0  0  0  0
   -3.6238    1.3624  -23.0208 H   0  0  0  0  0  0  0  0  0  0  0  0
   -2.3741    2.2850  -21.0817 H   0  0  0  0  0  0  0  0  0  0  0  0
   -3.0985    1.7447  -18.7698 H   0  0  0  0  0  0  0  0  0  0  0  0
   -4.6303    0.5921  -17.2389 H   0  0  0  0  0  0  0  0  0  0  0  0
   -7.8008   -1.6596  -18.6353 H   0  0  0  0  0  0  0  0  0  0  0  0
   -7.0388   -2.6139  -21.9478 C   0  0  0  0  0  0  0  0  0  0  0  0
   -8.2955   -2.9301  -22.7639 C   0  0  2  0  0  0  0  0  0  0  0  0
   -8.0100   -3.7267  -24.0319 C   0  0  0  0  0  0  0  0  0  0  0  0
   -9.2315   -4.2606  -24.5872 N   0  0  0  0  0  0  0  0  0  0  0  0
   -9.3342   -4.9165  -25.7818 C   0  0  0  0  0  0  0  0  0  0  0  0
  -10.8708   -5.0952  -26.6013 S   0  0  0  0  0  0  0  0  0  0  0  0
  -10.0670   -6.0248  -27.8184 C   0  0  0  0  0  0  0  0  0  0  0  0
   -8.7952   -6.1823  -27.6519 N   0  0  0  0  0  0  0  0  0  0  0  0
   -8.3611   -5.5675  -26.5020 C   0  0  0  0  0  0  0  0  0  0  0  0
   -6.9104   -5.6799  -26.1444 C   0  0  0  0  0  0  0  0  0  0  0  0
   -6.3995   -6.2742  -26.9040 H   0  0  0  0  0  0  0  0  0  0  0  0
   -6.7704   -6.1817  -25.1809 H   0  0  0  0  0  0  0  0  0  0  0  0
   -6.4290   -4.6965  -26.0901 H   0  0  0  0  0  0  0  0  0  0  0  0
  -10.6166   -6.3916  -28.6740 H   0  0  0  0  0  0  0  0  0  0  0  0
  -10.1001   -3.9912  -24.1438 H   0  0  0  0  0  0  0  0  0  0  0  0
   -7.3317   -4.5452  -23.7810 H   0  0  0  0  0  0  0  0  0  0  0  0
   -7.4914   -3.1202  -24.7794 H   0  0  0  0  0  0  0  0  0  0  0  0
   -8.9494   -3.5554  -22.1417 H   0  0  0  0  0  0  0  0  0  0  0  0
   -6.1735   -2.4316  -22.6046 H   0  0  0  0  0  0  0  0  0  0  0  0
   -6.7740   -3.4200  -21.2570 H   0  0  0  0  0  0  0  0  0  0  0  0
  -10.5388   -1.7541  -22.9686 C   0  0  0  0  0  0  0  0  0  0  0  0
  -11.2210   -2.1938  -21.8311 C   0  0  0  0  0  0  0  0  0  0  0  0
  -12.5989   -2.3463  -21.8457 C   0  0  0  0  0  0  0  0  0  0  0  0
  -13.3997   -3.0379  -20.4592 Cl  0  0  0  0  0  0  0  0  0  0  0  0
  -13.3590   -1.9553  -22.9471 C   0  0  0  0  0  0  0  0  0  0  0  0
  -12.6837   -1.4859  -24.0593 C   0  0  0  0  0  0  0  0  0  0  0  0
  -11.2954   -1.5343  -24.1206 C   0  0  0  0  0  0  0  0  0  0  0  0
  -10.6248   -1.4202  -25.4428 C   0  0  0  0  0  0  0  0  0  0  0  0
  -11.1990   -1.6345  -26.5088 O   0  0  0  0  0  0  0  0  0  0  0  0
  -13.2193   -1.0702  -24.9053 H   0  0  0  0  0  0  0  0  0  0  0  0
  -14.4410   -2.0275  -22.9115 H   0  0  0  0  0  0  0  0  0  0  0  0
  -10.6587   -2.3534  -20.9241 H   0  0  0  0  0  0  0  0  0  0  0  0
   -8.7840    0.3295  -23.8987 H   0  0  0  0  0  0  0  0  0  0  0  0
   -7.5527   -0.8632  -24.3395 H   0  0  0  0  0  0  0  0  0  0  0  0
   -8.0221    0.2172  -26.4095 H   0  0  0  0  0  0  0  0  0  0  0  0
   -9.4724   -0.3124  -27.3113 H   0  0  0  0  0  0  0  0  0  0  0  0
   -9.5169   -2.2625  -28.3125 H   0  0  0  0  0  0  0  0  0  0  0  0
   -7.1361   -3.8958  -28.5060 H   0  0  0  0  0  0  0  0  0  0  0  0
   -7.3029   -2.8606  -29.9306 H   0  0  0  0  0  0  0  0  0  0  0  0
   -8.5578   -4.0521  -29.5409 H   0  0  0  0  0  0  0  0  0  0  0  0
  1  2  1  0
  2  3  1  0
  3  4  2  0
  3  5  1  0
  5  6  1  0
  6  7  1  0
  8  7  1  6
  8  9  1  0
  9 10  2  0
  9 11  1  0
 11 12  1  0
 12 13  2  0
 13 14  1  0
 14 15  2  0
 15 16  1  0
 16 17  2  0
 17 18  1  0
 18 19  2  0
 19 20  1  0
 20 21  2  0
 20 22  1  0
 19 23  1  0
 18 24  1  0
 17 25  1  0
 15 26  1  0
 13 27  1  0
 11 28  1  0
 28 29  1  0
 29 30  1  0
 30 31  1  0
 31 32  1  0
 32 33  1  0
 33 34  1  0
 34 35  2  0
 35 36  1  0
 36 37  1  0
 37 38  1  0
 37 39  1  0
 37 40  1  0
 34 41  1  0
 31 42  1  0
 30 43  1  0
 30 44  1  0
 29 45  1  1
 28 46  1  0
 28 47  1  0
  8 48  1  0
 48 49  2  0
 49 50  1  0
 50 51  1  0
 50 52  2  0
 52 53  1  0
 53 54  2  0
 54 55  1  0
 55 56  2  0
 53 57  1  0
 52 58  1  0
 49 59  1  0
  7 60  1  0
  7 61  1  0
  5 62  1  0
  5 63  1  0
  2 64  1  0
  1 65  1  0
  1 66  1  0
  1 67  1  0
 55  6  1  0
 29  8  1  0
 36 32  2  0
 54 48  1  0
 21 12  1  0
 21 16  1  0
M  END
>  <cnnaffinities>  (41) 
[7.21149]

>  <score>  (41) 
7.21149

>  <index>  (41) 
43

>  <Smiles>  (41) 
C(N(C(=O)C(N1C([C@@]2(C(=O)N(c3c(nc(c4c(c(c(c(c34)[H])[H])[H])[H])[H])[H])C([C@@]2(C(N(c2sc(nc2C([H])([H])[H])[H])[H])([H])[H])[H])([H])[H])c2c(c(Cl)c(c(c2C1=O)[H])[H])[H])([H])[H])([H])[H])[H])([H])([H])[H]

>  <h>  (41) 
<NA>

>  <Training>  (41) 
True

>  <Success>  (41) 
True

>  <enamine_searched>  (41) 
False

>  <enamine_id>  (41) 
nan

$$$$

     RDKit          3D

 60 64  0  0  0  0  0  0  0  0999 V2000
   -8.4375    4.4878  -23.6602 C   0  0  0  0  0  0  0  0  0  0  0  0
   -8.4534    3.3895  -24.6078 N   0  0  0  0  0  0  0  0  0  0  0  0
   -7.5719    2.3632  -24.4339 C   0  0  0  0  0  0  0  0  0  0  0  0
   -6.6833    2.3737  -23.5953 O   0  0  0  0  0  0  0  0  0  0  0  0
   -7.7743    1.2049  -25.4144 C   0  0  0  0  0  0  0  0  0  0  0  0
   -8.6538    0.1935  -24.8644 N   0  0  0  0  0  0  0  0  0  0  0  0
   -8.1301   -1.0682  -24.3887 C   0  0  0  0  0  0  0  0  0  0  0  0
   -8.8264   -1.5322  -23.0838 C   0  0  2  0  0  0  0  0  0  0  0  0
   -8.3560   -0.6716  -21.8812 C   0  0  0  0  0  0  0  0  0  0  0  0
   -8.7042    0.4416  -21.5654 O   0  0  0  0  0  0  0  0  0  0  0  0
   -7.4098   -1.4086  -21.1954 N   0  0  0  0  0  0  0  0  0  0  0  0
   -6.6104   -0.8348  -20.1797 C   0  0  0  0  0  0  0  0  0  0  0  0
   -6.9154   -1.0830  -18.8680 C   0  0  0  0  0  0  0  0  0  0  0  0
   -6.2368   -0.5776  -17.8082 N   0  0  0  0  0  0  0  0  0  0  0  0
   -5.2116    0.1941  -18.0803 C   0  0  0  0  0  0  0  0  0  0  0  0
   -4.7679    0.5065  -19.3965 C   0  0  0  0  0  0  0  0  0  0  0  0
   -3.6360    1.3318  -19.6221 C   0  0  0  0  0  0  0  0  0  0  0  0
   -3.2207    1.6094  -20.8912 C   0  0  0  0  0  0  0  0  0  0  0  0
   -3.9192    1.0824  -22.0004 C   0  0  0  0  0  0  0  0  0  0  0  0
   -5.0226    0.2875  -21.8115 C   0  0  0  0  0  0  0  0  0  0  0  0
   -5.4768   -0.0223  -20.4990 C   0  0  0  0  0  0  0  0  0  0  0  0
   -5.5622   -0.0758  -22.6828 H   0  0  0  0  0  0  0  0  0  0  0  0
   -3.5863    1.3136  -23.0064 H   0  0  0  0  0  0  0  0  0  0  0  0
   -2.3514    2.2361  -21.0559 H   0  0  0  0  0  0  0  0  0  0  0  0
   -3.1228    1.7379  -18.7541 H   0  0  0  0  0  0  0  0  0  0  0  0
   -4.6564    0.6086  -17.2384 H   0  0  0  0  0  0  0  0  0  0  0  0
   -7.7704   -1.7148  -18.6368 H   0  0  0  0  0  0  0  0  0  0  0  0
   -7.1641   -2.7336  -21.7203 C   0  0  0  0  0  0  0  0  0  0  0  0
   -8.3477   -2.9434  -22.6670 C   0  0  2  0  0  0  0  0  0  0  0  0
   -8.0455   -3.8850  -23.8123 C   0  0  0  0  0  0  0  0  0  0  0  0
   -7.7996   -5.1531  -23.2685 O   0  0  0  0  0  0  0  0  0  0  0  0
   -7.4601   -6.1027  -24.2409 C   0  0  0  0  0  0  0  0  0  0  0  0
   -6.5393   -5.8282  -24.7763 H   0  0  0  0  0  0  0  0  0  0  0  0
   -7.2974   -7.0511  -23.7262 H   0  0  0  0  0  0  0  0  0  0  0  0
   -8.2600   -6.2353  -24.9843 H   0  0  0  0  0  0  0  0  0  0  0  0
   -8.8938   -3.9078  -24.5155 H   0  0  0  0  0  0  0  0  0  0  0  0
   -7.1695   -3.5241  -24.3770 H   0  0  0  0  0  0  0  0  0  0  0  0
   -9.1451   -3.4109  -22.0903 H   0  0  0  0  0  0  0  0  0  0  0  0
   -6.1965   -2.8060  -22.2401 H   0  0  0  0  0  0  0  0  0  0  0  0
   -7.1531   -3.4638  -20.9110 H   0  0  0  0  0  0  0  0  0  0  0  0
  -10.3176   -1.4338  -23.3070 C   0  0  0  0  0  0  0  0  0  0  0  0
  -11.2005   -2.1049  -22.4603 C   0  0  0  0  0  0  0  0  0  0  0  0
  -12.5584   -1.8921  -22.5822 C   0  0  0  0  0  0  0  0  0  0  0  0
  -13.6010   -2.6580  -21.4325 Cl  0  0  0  0  0  0  0  0  0  0  0  0
  -13.1107   -1.0804  -23.5731 C   0  0  0  0  0  0  0  0  0  0  0  0
  -12.2400   -0.4371  -24.4259 C   0  0  0  0  0  0  0  0  0  0  0  0
  -10.8629   -0.5638  -24.2559 C   0  0  0  0  0  0  0  0  0  0  0  0
   -9.9907    0.3923  -24.9982 C   0  0  0  0  0  0  0  0  0  0  0  0
  -10.4406    1.3375  -25.6431 O   0  0  0  0  0  0  0  0  0  0  0  0
  -12.5943    0.2342  -25.1980 H   0  0  0  0  0  0  0  0  0  0  0  0
  -14.1847   -0.9275  -23.6315 H   0  0  0  0  0  0  0  0  0  0  0  0
  -10.8392   -2.7653  -21.6791 H   0  0  0  0  0  0  0  0  0  0  0  0
   -7.0525   -0.9535  -24.2344 H   0  0  0  0  0  0  0  0  0  0  0  0
   -8.2845   -1.8368  -25.1562 H   0  0  0  0  0  0  0  0  0  0  0  0
   -8.2145    1.5723  -26.3482 H   0  0  0  0  0  0  0  0  0  0  0  0
   -6.8080    0.7385  -25.6079 H   0  0  0  0  0  0  0  0  0  0  0  0
   -9.2966    3.2067  -25.1367 H   0  0  0  0  0  0  0  0  0  0  0  0
   -9.1639    5.2419  -23.9702 H   0  0  0  0  0  0  0  0  0  0  0  0
   -7.4439    4.9483  -23.6439 H   0  0  0  0  0  0  0  0  0  0  0  0
   -8.6898    4.1398  -22.6497 H   0  0  0  0  0  0  0  0  0  0  0  0
  1  2  1  0
  2  3  1  0
  3  4  2  0
  3  5  1  0
  5  6  1  0
  6  7  1  0
  8  7  1  6
  8  9  1  0
  9 10  2  0
  9 11  1  0
 11 12  1  0
 12 13  2  0
 13 14  1  0
 14 15  2  0
 15 16  1  0
 16 17  2  0
 17 18  1  0
 18 19  2  0
 19 20  1  0
 20 21  2  0
 20 22  1  0
 19 23  1  0
 18 24  1  0
 17 25  1  0
 15 26  1  0
 13 27  1  0
 11 28  1  0
 28 29  1  0
 29 30  1  0
 30 31  1  0
 31 32  1  0
 32 33  1  0
 32 34  1  0
 32 35  1  0
 30 36  1  0
 30 37  1  0
 29 38  1  1
 28 39  1  0
 28 40  1  0
  8 41  1  0
 41 42  2  0
 42 43  1  0
 43 44  1  0
 43 45  2  0
 45 46  1  0
 46 47  2  0
 47 48  1  0
 48 49  2  0
 46 50  1  0
 45 51  1  0
 42 52  1  0
  7 53  1  0
  7 54  1  0
  5 55  1  0
  5 56  1  0
  2 57  1  0
  1 58  1  0
  1 59  1  0
  1 60  1  0
 48  6  1  0
 29  8  1  0
 47 41  1  0
 21 12  1  0
 21 16  1  0
M  END
>  <cnnaffinities>  (42) 
[6.93898, 6.66276]

>  <score>  (42) 
6.93898

>  <index>  (42) 
44

>  <Smiles>  (42) 
C(N(C(=O)C(N1C([C@@]2(C(=O)N(c3c(nc(c4c(c(c(c(c34)[H])[H])[H])[H])[H])[H])C([C@@]2(C(OC([H])([H])[H])([H])[H])[H])([H])[H])c2c(c(Cl)c(c(c2C1=O)[H])[H])[H])([H])[H])([H])[H])[H])([H])([H])[H]

>  <h>  (42) 
<NA>

>  <Training>  (42) 
True

>  <Success>  (42) 
True

>  <enamine_searched>  (42) 
False

>  <enamine_id>  (42) 
nan

$$$$

     RDKit          3D

 66 71  0  0  0  0  0  0  0  0999 V2000
   -8.6391    4.4502  -23.2705 C   0  0  0  0  0  0  0  0  0  0  0  0
   -8.6745    3.4115  -24.2812 N   0  0  0  0  0  0  0  0  0  0  0  0
   -7.7325    2.4318  -24.2585 C   0  0  0  0  0  0  0  0  0  0  0  0
   -6.8364    2.4073  -23.4316 O   0  0  0  0  0  0  0  0  0  0  0  0
   -7.8854    1.3424  -25.3239 C   0  0  0  0  0  0  0  0  0  0  0  0
   -8.7145    0.2602  -24.8138 N   0  0  0  0  0  0  0  0  0  0  0  0
   -8.1293   -0.9861  -24.3490 C   0  0  0  0  0  0  0  0  0  0  0  0
   -8.8233   -1.5416  -23.0676 C   0  0  2  0  0  0  0  0  0  0  0  0
   -8.4008   -0.7328  -21.8110 C   0  0  0  0  0  0  0  0  0  0  0  0
   -8.8488    0.3154  -21.4022 O   0  0  0  0  0  0  0  0  0  0  0  0
   -7.3850   -1.4216  -21.1842 N   0  0  0  0  0  0  0  0  0  0  0  0
   -6.6061   -0.8269  -20.1632 C   0  0  0  0  0  0  0  0  0  0  0  0
   -6.9247   -1.0598  -18.8527 C   0  0  0  0  0  0  0  0  0  0  0  0
   -6.2363   -0.5652  -17.7939 N   0  0  0  0  0  0  0  0  0  0  0  0
   -5.1994    0.1930  -18.0559 C   0  0  0  0  0  0  0  0  0  0  0  0
   -4.7512    0.5056  -19.3701 C   0  0  0  0  0  0  0  0  0  0  0  0
   -3.6220    1.3346  -19.5997 C   0  0  0  0  0  0  0  0  0  0  0  0
   -3.2087    1.6086  -20.8718 C   0  0  0  0  0  0  0  0  0  0  0  0
   -3.9148    1.0780  -21.9768 C   0  0  0  0  0  0  0  0  0  0  0  0
   -5.0240    0.2895  -21.7852 C   0  0  0  0  0  0  0  0  0  0  0  0
   -5.4675   -0.0178  -20.4703 C   0  0  0  0  0  0  0  0  0  0  0  0
   -5.5783   -0.0788  -22.6468 H   0  0  0  0  0  0  0  0  0  0  0  0
   -3.5870    1.3083  -22.9853 H   0  0  0  0  0  0  0  0  0  0  0  0
   -2.3418    2.2408  -21.0463 H   0  0  0  0  0  0  0  0  0  0  0  0
   -3.1039    1.7428  -18.7363 H   0  0  0  0  0  0  0  0  0  0  0  0
   -4.6541    0.6049  -17.2061 H   0  0  0  0  0  0  0  0  0  0  0  0
   -7.7882   -1.6815  -18.6237 H   0  0  0  0  0  0  0  0  0  0  0  0
   -7.0651   -2.6990  -21.7779 C   0  0  0  0  0  0  0  0  0  0  0  0
   -8.2629   -2.9611  -22.7054 C   0  0  2  0  0  0  0  0  0  0  0  0
   -7.9218   -3.8734  -23.9017 C   0  0  0  0  0  0  0  0  0  0  0  0
   -7.5405   -5.2865  -23.5171 C   0  0  0  0  0  0  0  0  0  0  0  0
   -8.5111   -6.2900  -23.5243 C   0  0  0  0  0  0  0  0  0  0  0  0
   -8.2152   -7.5868  -23.1177 C   0  0  0  0  0  0  0  0  0  0  0  0
   -6.9209   -7.9115  -22.7248 C   0  0  0  0  0  0  0  0  0  0  0  0
   -5.9277   -6.9315  -22.7525 C   0  0  0  0  0  0  0  0  0  0  0  0
   -6.2335   -5.6306  -23.1495 C   0  0  0  0  0  0  0  0  0  0  0  0
   -5.4333   -4.8876  -23.2158 H   0  0  0  0  0  0  0  0  0  0  0  0
   -4.9023   -7.1881  -22.4912 H   0  0  0  0  0  0  0  0  0  0  0  0
   -6.6738   -8.9271  -22.4242 H   0  0  0  0  0  0  0  0  0  0  0  0
   -9.0090   -8.3308  -23.1174 H   0  0  0  0  0  0  0  0  0  0  0  0
   -9.5115   -6.0542  -23.8814 H   0  0  0  0  0  0  0  0  0  0  0  0
   -8.8033   -3.8981  -24.5589 H   0  0  0  0  0  0  0  0  0  0  0  0
   -7.0995   -3.4139  -24.4699 H   0  0  0  0  0  0  0  0  0  0  0  0
   -9.0165   -3.4800  -22.1021 H   0  0  0  0  0  0  0  0  0  0  0  0
   -6.9536   -3.4750  -21.0126 H   0  0  0  0  0  0  0  0  0  0  0  0
   -6.1113   -2.6685  -22.3277 H   0  0  0  0  0  0  0  0  0  0  0  0
  -10.3265   -1.4620  -23.2690 C   0  0  0  0  0  0  0  0  0  0  0  0
  -11.1848   -2.1700  -22.4133 C   0  0  0  0  0  0  0  0  0  0  0  0
  -12.5577   -2.0142  -22.5022 C   0  0  0  0  0  0  0  0  0  0  0  0
  -13.5758   -2.8514  -21.3526 Cl  0  0  0  0  0  0  0  0  0  0  0  0
  -13.1309   -1.1983  -23.4802 C   0  0  0  0  0  0  0  0  0  0  0  0
  -12.2931   -0.4982  -24.3291 C   0  0  0  0  0  0  0  0  0  0  0  0
  -10.9037   -0.5850  -24.2019 C   0  0  0  0  0  0  0  0  0  0  0  0
  -10.0613    0.3815  -24.9840 C   0  0  0  0  0  0  0  0  0  0  0  0
  -10.5428    1.2853  -25.6658 O   0  0  0  0  0  0  0  0  0  0  0  0
  -12.7069    0.1488  -25.0958 H   0  0  0  0  0  0  0  0  0  0  0  0
  -14.2100   -1.0907  -23.5417 H   0  0  0  0  0  0  0  0  0  0  0  0
  -10.7994   -2.8244  -21.6384 H   0  0  0  0  0  0  0  0  0  0  0  0
   -7.0622   -0.8186  -24.1544 H   0  0  0  0  0  0  0  0  0  0  0  0
   -8.2282   -1.7280  -25.1539 H   0  0  0  0  0  0  0  0  0  0  0  0
   -8.3472    1.7489  -26.2269 H   0  0  0  0  0  0  0  0  0  0  0  0
   -6.8990    0.9559  -25.5906 H   0  0  0  0  0  0  0  0  0  0  0  0
   -9.5306    3.2245  -24.7827 H   0  0  0  0  0  0  0  0  0  0  0  0
   -7.6756    4.9665  -23.2998 H   0  0  0  0  0  0  0  0  0  0  0  0
   -8.7538    4.0373  -22.2635 H   0  0  0  0  0  0  0  0  0  0  0  0
   -9.4385    5.1650  -23.4720 H   0  0  0  0  0  0  0  0  0  0  0  0
  1  2  1  0
  2  3  1  0
  3  4  2  0
  3  5  1  0
  5  6  1  0
  6  7  1  0
  8  7  1  6
  8  9  1  0
  9 10  2  0
  9 11  1  0
 11 12  1  0
 12 13  2  0
 13 14  1  0
 14 15  2  0
 15 16  1  0
 16 17  2  0
 17 18  1  0
 18 19  2  0
 19 20  1  0
 20 21  2  0
 20 22  1  0
 19 23  1  0
 18 24  1  0
 17 25  1  0
 15 26  1  0
 13 27  1  0
 11 28  1  0
 28 29  1  0
 29 30  1  0
 30 31  1  0
 31 32  2  0
 32 33  1  0
 33 34  2  0
 34 35  1  0
 35 36  2  0
 36 37  1  0
 35 38  1  0
 34 39  1  0
 33 40  1  0
 32 41  1  0
 30 42  1  0
 30 43  1  0
 29 44  1  1
 28 45  1  0
 28 46  1  0
  8 47  1  0
 47 48  2  0
 48 49  1  0
 49 50  1  0
 49 51  2  0
 51 52  1  0
 52 53  2  0
 53 54  1  0
 54 55  2  0
 52 56  1  0
 51 57  1  0
 48 58  1  0
  7 59  1  0
  7 60  1  0
  5 61  1  0
  5 62  1  0
  2 63  1  0
  1 64  1  0
  1 65  1  0
  1 66  1  0
 54  6  1  0
 29  8  1  0
 36 31  1  0
 53 47  1  0
 21 12  1  0
 21 16  1  0
M  END
>  <cnnaffinities>  (43) 
[7.24676]

>  <score>  (43) 
7.24676

>  <index>  (43) 
45

>  <Smiles>  (43) 
C(N(C(=O)C(N1C([C@@]2(C(=O)N(c3c(nc(c4c(c(c(c(c34)[H])[H])[H])[H])[H])[H])C([C@@]2(C(c2c(c(c(c(c2[H])[H])[H])[H])[H])([H])[H])[H])([H])[H])c2c(c(Cl)c(c(c2C1=O)[H])[H])[H])([H])[H])([H])[H])[H])([H])([H])[H]

>  <h>  (43) 
<NA>

>  <Training>  (43) 
True

>  <Success>  (43) 
True

>  <enamine_searched>  (43) 
False

>  <enamine_id>  (43) 
nan

$$$$

     RDKit          3D

 50 54  0  0  0  0  0  0  0  0999 V2000
   -8.4343   -4.1113  -23.4315 C   0  0  0  0  0  0  0  0  0  0  0  0
   -8.5705   -2.9153  -22.5029 C   0  0  1  0  0  0  0  0  0  0  0  0
   -7.4057   -2.7222  -21.5344 C   0  0  0  0  0  0  0  0  0  0  0  0
   -7.4539   -1.3059  -21.2408 N   0  0  0  0  0  0  0  0  0  0  0  0
   -6.6474   -0.7589  -20.2200 C   0  0  0  0  0  0  0  0  0  0  0  0
   -6.9322   -1.0529  -18.9093 C   0  0  0  0  0  0  0  0  0  0  0  0
   -6.2468   -0.5752  -17.8437 N   0  0  0  0  0  0  0  0  0  0  0  0
   -5.2191    0.1991  -18.1014 C   0  0  0  0  0  0  0  0  0  0  0  0
   -4.7764    0.5302  -19.4136 C   0  0  0  0  0  0  0  0  0  0  0  0
   -3.6367    1.3488  -19.6247 C   0  0  0  0  0  0  0  0  0  0  0  0
   -3.1997    1.6162  -20.8906 C   0  0  0  0  0  0  0  0  0  0  0  0
   -3.8743    1.0678  -22.0054 C   0  0  0  0  0  0  0  0  0  0  0  0
   -4.9838    0.2801  -21.8305 C   0  0  0  0  0  0  0  0  0  0  0  0
   -5.4822    0.0161  -20.5225 C   0  0  0  0  0  0  0  0  0  0  0  0
   -5.4761   -0.1483  -22.7006 H   0  0  0  0  0  0  0  0  0  0  0  0
   -3.5149    1.2807  -23.0072 H   0  0  0  0  0  0  0  0  0  0  0  0
   -2.3298    2.2480  -21.0467 H   0  0  0  0  0  0  0  0  0  0  0  0
   -3.1302    1.7513  -18.7513 H   0  0  0  0  0  0  0  0  0  0  0  0
   -4.6726    0.5995  -17.2481 H   0  0  0  0  0  0  0  0  0  0  0  0
   -7.7785   -1.7018  -18.6848 H   0  0  0  0  0  0  0  0  0  0  0  0
   -8.2204   -0.5615  -22.1193 C   0  0  0  0  0  0  0  0  0  0  0  0
   -8.4113    0.6306  -22.0238 O   0  0  0  0  0  0  0  0  0  0  0  0
   -8.7356   -1.5420  -23.2119 C   0  0  1  0  0  0  0  0  0  0  0  0
   -7.8219   -1.4487  -24.4645 C   0  0  0  0  0  0  0  0  0  0  0  0
   -7.9799   -0.1661  -25.1277 N   0  0  0  0  0  0  0  0  0  0  0  0
   -6.8508    0.6215  -25.5756 C   0  0  0  0  0  0  0  0  0  0  0  0
   -6.5989    1.8009  -24.7274 C   0  0  0  0  0  0  0  0  0  0  0  0
   -6.3447    2.7392  -24.0990 N   0  0  0  0  0  0  0  0  0  0  0  0
   -5.9525   -0.0013  -25.5861 H   0  0  0  0  0  0  0  0  0  0  0  0
   -7.0542    0.9742  -26.5914 H   0  0  0  0  0  0  0  0  0  0  0  0
   -9.2240    0.2977  -25.4668 C   0  0  0  0  0  0  0  0  0  0  0  0
   -9.3884    1.1807  -26.2975 O   0  0  0  0  0  0  0  0  0  0  0  0
  -10.3622   -0.3289  -24.7301 C   0  0  0  0  0  0  0  0  0  0  0  0
  -11.6516    0.0044  -25.1448 C   0  0  0  0  0  0  0  0  0  0  0  0
  -12.7539   -0.4508  -24.4511 C   0  0  0  0  0  0  0  0  0  0  0  0
  -12.5320   -1.3240  -23.3936 C   0  0  0  0  0  0  0  0  0  0  0  0
  -13.5951   -1.7942  -22.7183 F   0  0  0  0  0  0  0  0  0  0  0  0
  -11.2705   -1.7388  -23.0193 C   0  0  0  0  0  0  0  0  0  0  0  0
  -10.1444   -1.2147  -23.6661 C   0  0  0  0  0  0  0  0  0  0  0  0
  -11.2016   -2.4611  -22.2141 H   0  0  0  0  0  0  0  0  0  0  0  0
  -13.7614   -0.1304  -24.6919 H   0  0  0  0  0  0  0  0  0  0  0  0
  -11.7440    0.6200  -26.0321 H   0  0  0  0  0  0  0  0  0  0  0  0
   -8.0776   -2.2658  -25.1590 H   0  0  0  0  0  0  0  0  0  0  0  0
   -6.7697   -1.5568  -24.1815 H   0  0  0  0  0  0  0  0  0  0  0  0
   -6.4388   -3.0225  -21.9679 H   0  0  0  0  0  0  0  0  0  0  0  0
   -7.5364   -3.2837  -20.6111 H   0  0  0  0  0  0  0  0  0  0  0  0
   -9.4514   -3.0508  -21.8710 H   0  0  0  0  0  0  0  0  0  0  0  0
   -8.4519   -5.0449  -22.8644 H   0  0  0  0  0  0  0  0  0  0  0  0
   -9.2521   -4.1235  -24.1611 H   0  0  0  0  0  0  0  0  0  0  0  0
   -7.4890   -4.0619  -23.9843 H   0  0  0  0  0  0  0  0  0  0  0  0
  1  2  1  0
  2  3  1  0
  3  4  1  0
  4  5  1  0
  5  6  2  0
  6  7  1  0
  7  8  2  0
  8  9  1  0
  9 10  2  0
 10 11  1  0
 11 12  2  0
 12 13  1  0
 13 14  2  0
 13 15  1  0
 12 16  1  0
 11 17  1  0
 10 18  1  0
  8 19  1  0
  6 20  1  0
  4 21  1  0
 21 22  2  0
 21 23  1  0
 23 24  1  6
 24 25  1  0
 25 26  1  0
 26 27  1  0
 27 28  3  0
 26 29  1  0
 26 30  1  0
 25 31  1  0
 31 32  2  0
 31 33  1  0
 33 34  2  0
 34 35  1  0
 35 36  2  0
 36 37  1  0
 36 38  1  0
 38 39  2  0
 38 40  1  0
 35 41  1  0
 34 42  1  0
 24 43  1  0
 24 44  1  0
  3 45  1  0
  3 46  1  0
  2 47  1  1
  1 48  1  0
  1 49  1  0
  1 50  1  0
 23  2  1  0
 39 33  1  0
 14  5  1  0
 39 23  1  0
 14  9  1  0
M  END
>  <cnnaffinities>  (44) 
[6.18727, 5.8897, 6.07287, 6.15796, 5.64929, 6.39732]

>  <score>  (44) 
6.18727

>  <index>  (44) 
46

>  <Smiles>  (44) 
C([C@]1(C(N(c2c(nc(c3c(c(c(c(c23)[H])[H])[H])[H])[H])[H])C(=O)[C@]21C(N(C(C#N)([H])[H])C(=O)c1c(c(c(F)c(c21)[H])[H])[H])([H])[H])([H])[H])[H])([H])([H])[H]

>  <h>  (44) 
<NA>

>  <Training>  (44) 
True

>  <Success>  (44) 
True

>  <enamine_searched>  (44) 
False

>  <enamine_id>  (44) 
nan

$$$$

     RDKit          3D

 58 63  0  0  0  0  0  0  0  0999 V2000
   -8.7804    0.5123  -21.0324 O   0  0  0  0  0  0  0  0  0  0  0  0
   -8.1423   -0.1778  -21.8136 C   0  0  0  0  0  0  0  0  0  0  0  0
   -7.4067   -1.3973  -21.2956 C   0  0  0  0  0  0  0  0  0  0  0  0
   -6.5272   -0.9081  -20.1742 C   0  0  0  0  0  0  0  0  0  0  0  0
   -6.8693   -1.0988  -18.8627 C   0  0  0  0  0  0  0  0  0  0  0  0
   -6.2148   -0.5658  -17.7989 N   0  0  0  0  0  0  0  0  0  0  0  0
   -5.1906    0.2107  -18.0668 C   0  0  0  0  0  0  0  0  0  0  0  0
   -4.7293    0.5118  -19.3785 C   0  0  0  0  0  0  0  0  0  0  0  0
   -3.6288    1.3734  -19.6164 C   0  0  0  0  0  0  0  0  0  0  0  0
   -3.2297    1.6673  -20.8907 C   0  0  0  0  0  0  0  0  0  0  0  0
   -3.9227    1.1103  -21.9890 C   0  0  0  0  0  0  0  0  0  0  0  0
   -4.9897    0.2715  -21.7847 C   0  0  0  0  0  0  0  0  0  0  0  0
   -5.4228   -0.0565  -20.4709 C   0  0  0  0  0  0  0  0  0  0  0  0
   -5.5187   -0.1198  -22.6488 H   0  0  0  0  0  0  0  0  0  0  0  0
   -3.6163    1.3653  -23.0008 H   0  0  0  0  0  0  0  0  0  0  0  0
   -2.3869    2.3284  -21.0677 H   0  0  0  0  0  0  0  0  0  0  0  0
   -3.1167    1.8005  -18.7578 H   0  0  0  0  0  0  0  0  0  0  0  0
   -4.6671    0.6538  -17.2198 H   0  0  0  0  0  0  0  0  0  0  0  0
   -7.7356   -1.7153  -18.6170 H   0  0  0  0  0  0  0  0  0  0  0  0
   -6.8332   -1.8572  -22.1026 H   0  0  0  0  0  0  0  0  0  0  0  0
   -8.1561   -2.1102  -20.9372 H   0  0  0  0  0  0  0  0  0  0  0  0
   -7.9578    0.1736  -23.1464 N   0  0  0  0  0  0  0  0  0  0  0  0
   -7.9804   -0.7977  -24.2491 C   0  0  0  0  0  0  0  0  0  0  0  0
   -9.0714   -1.8586  -24.1242 C   0  0  0  0  0  0  0  0  0  0  0  0
   -8.7607   -3.2187  -24.0546 C   0  0  0  0  0  0  0  0  0  0  0  0
   -9.7597   -4.1703  -23.8564 C   0  0  0  0  0  0  0  0  0  0  0  0
  -11.0862   -3.7888  -23.7079 C   0  0  0  0  0  0  0  0  0  0  0  0
  -11.3932   -2.4360  -23.8061 C   0  0  0  0  0  0  0  0  0  0  0  0
  -13.0399   -1.9221  -23.5760 Cl  0  0  0  0  0  0  0  0  0  0  0  0
  -10.4148   -1.4840  -24.0651 C   0  0  0  0  0  0  0  0  0  0  0  0
  -10.7405   -0.4587  -24.2410 H   0  0  0  0  0  0  0  0  0  0  0  0
  -11.8669   -4.5212  -23.5242 H   0  0  0  0  0  0  0  0  0  0  0  0
   -9.4924   -5.2226  -23.8169 H   0  0  0  0  0  0  0  0  0  0  0  0
   -7.7246   -3.5438  -24.1095 H   0  0  0  0  0  0  0  0  0  0  0  0
   -7.0018   -1.2933  -24.3332 H   0  0  0  0  0  0  0  0  0  0  0  0
   -8.1430   -0.2251  -25.1666 H   0  0  0  0  0  0  0  0  0  0  0  0
   -8.0539    1.5927  -23.4003 C   0  0  2  0  0  0  0  0  0  0  0  0
   -9.4453    2.1245  -23.7052 C   0  0  0  0  0  0  0  0  0  0  0  0
   -9.1301    3.5822  -23.9007 N   0  0  1  0  0  4  0  0  0  0  0  0
  -10.0199    4.5303  -23.2279 C   0  0  0  0  0  0  0  0  0  0  0  0
  -10.0057    5.9669  -23.6377 C   0  0  0  0  0  0  0  0  0  0  0  0
  -11.1991    5.1048  -23.9619 C   0  0  0  0  0  0  0  0  0  0  0  0
  -12.1086    5.2529  -23.3891 H   0  0  0  0  0  0  0  0  0  0  0  0
  -11.3402    4.8085  -24.9992 H   0  0  0  0  0  0  0  0  0  0  0  0
   -9.3587    6.2385  -24.4670 H   0  0  0  0  0  0  0  0  0  0  0  0
  -10.0963    6.7021  -22.8482 H   0  0  0  0  0  0  0  0  0  0  0  0
  -10.1821    4.3295  -22.1762 H   0  0  0  0  0  0  0  0  0  0  0  0
   -7.6464    3.5695  -23.5048 C   0  0  2  0  0  0  0  0  0  0  0  0
   -7.1714    2.4014  -24.3835 C   0  0  0  0  0  0  0  0  0  0  0  0
   -6.1100    2.1816  -24.2838 H   0  0  0  0  0  0  0  0  0  0  0  0
   -7.4888    2.4507  -25.4333 H   0  0  0  0  0  0  0  0  0  0  0  0
   -7.6078    2.6204  -22.3150 C   0  0  0  0  0  0  0  0  0  0  0  0
   -8.3160    2.8200  -21.5074 H   0  0  0  0  0  0  0  0  0  0  0  0
   -6.6148    2.4038  -21.9205 H   0  0  0  0  0  0  0  0  0  0  0  0
   -7.1880    4.5493  -23.4865 H   0  0  0  0  0  0  0  0  0  0  0  0
   -9.1742    3.7847  -24.9172 H   0  0  0  0  0  0  0  0  0  0  0  0
  -10.0880    2.0089  -22.8333 H   0  0  0  0  0  0  0  0  0  0  0  0
   -9.9171    1.7013  -24.5977 H   0  0  0  0  0  0  0  0  0  0  0  0
  1  2  2  0
  2  3  1  0
  3  4  1  0
  4  5  2  0
  5  6  1  0
  6  7  2  0
  7  8  1  0
  8  9  2  0
  9 10  1  0
 10 11  2  0
 11 12  1  0
 12 13  2  0
 12 14  1  0
 11 15  1  0
 10 16  1  0
  9 17  1  0
  7 18  1  0
  5 19  1  0
  3 20  1  0
  3 21  1  0
  2 22  1  0
 22 23  1  0
 23 24  1  0
 24 25  2  0
 25 26  1  0
 26 27  2  0
 27 28  1  0
 28 29  1  0
 28 30  2  0
 30 31  1  0
 27 32  1  0
 26 33  1  0
 25 34  1  0
 23 35  1  0
 23 36  1  0
 37 22  1  1
 37 38  1  0
 38 39  1  0
 39 40  1  0
 40 41  1  0
 41 42  1  0
 42 43  1  0
 42 44  1  0
 41 45  1  0
 41 46  1  0
 40 47  1  0
 39 48  1  0
 48 49  1  0
 49 50  1  0
 49 51  1  0
 48 52  1  0
 52 53  1  0
 52 54  1  0
 48 55  1  1
 39 56  1  6
 38 57  1  0
 38 58  1  0
 13  4  1  0
 30 24  1  0
 49 37  1  0
 13  8  1  0
 52 37  1  0
 42 40  1  0
M  CHG  1  39   1
M  END
>  <cnnaffinities>  (45) 
[6.16902, 5.93713]

>  <score>  (45) 
6.16902

>  <index>  (45) 
47

>  <Smiles>  (45) 
O=C(C(c1c(nc(c2c(c(c(c(c12)[H])[H])[H])[H])[H])[H])([H])[H])N(C(c1c(c(c(c(Cl)c1[H])[H])[H])[H])([H])[H])[C@]12C([N@@+](C3(C(C3([H])[H])([H])[H])[H])([C@](C1([H])[H])(C2([H])[H])[H])[H])([H])[H]

>  <h>  (45) 
<NA>

>  <Training>  (45) 
True

>  <Success>  (45) 
True

>  <enamine_searched>  (45) 
False

>  <enamine_id>  (45) 
nan

$$$$

     RDKit          3D

 46 48  0  0  0  0  0  0  0  0999 V2000
   -8.3084   -6.5780  -26.1145 C   0  0  0  0  0  0  0  0  0  0  0  0
   -9.3999   -6.5167  -25.0547 C   0  0  0  0  0  0  0  0  0  0  0  0
  -10.7693   -6.4141  -25.7240 C   0  0  0  0  0  0  0  0  0  0  0  0
  -11.5809   -6.3840  -24.9911 H   0  0  0  0  0  0  0  0  0  0  0  0
  -10.9181   -7.2879  -26.3663 H   0  0  0  0  0  0  0  0  0  0  0  0
  -10.8602   -5.5115  -26.3417 H   0  0  0  0  0  0  0  0  0  0  0  0
   -9.2081   -5.4437  -23.9650 C   0  0  0  0  0  0  0  0  0  0  0  0
   -9.0309   -3.9898  -24.4345 C   0  0  0  0  0  0  0  0  0  0  0  0
   -8.7321   -3.1204  -23.2094 C   0  0  0  0  0  0  0  0  0  0  0  0
   -7.4346   -3.5210  -22.6500 N   0  0  0  0  0  0  0  0  0  0  0  0
   -6.7127   -2.7786  -21.7626 C   0  0  0  0  0  0  0  0  0  0  0  0
   -5.6043   -3.1181  -21.3739 O   0  0  0  0  0  0  0  0  0  0  0  0
   -7.3806   -1.4997  -21.2617 C   0  0  0  0  0  0  0  0  0  0  0  0
   -6.5928   -0.8539  -20.1715 C   0  0  0  0  0  0  0  0  0  0  0  0
   -6.9097   -1.0794  -18.8609 C   0  0  0  0  0  0  0  0  0  0  0  0
   -6.2442   -0.5667  -17.7920 N   0  0  0  0  0  0  0  0  0  0  0  0
   -5.2103    0.1974  -18.0627 C   0  0  0  0  0  0  0  0  0  0  0  0
   -4.7503    0.4905  -19.3746 C   0  0  0  0  0  0  0  0  0  0  0  0
   -3.6293    1.3298  -19.6103 C   0  0  0  0  0  0  0  0  0  0  0  0
   -3.2250    1.5994  -20.8894 C   0  0  0  0  0  0  0  0  0  0  0  0
   -3.9106    1.0432  -21.9860 C   0  0  0  0  0  0  0  0  0  0  0  0
   -4.9972    0.2241  -21.7880 C   0  0  0  0  0  0  0  0  0  0  0  0
   -5.4518   -0.0578  -20.4697 C   0  0  0  0  0  0  0  0  0  0  0  0
   -5.5004   -0.2083  -22.6450 H   0  0  0  0  0  0  0  0  0  0  0  0
   -3.5846    1.2742  -22.9970 H   0  0  0  0  0  0  0  0  0  0  0  0
   -2.3745    2.2539  -21.0662 H   0  0  0  0  0  0  0  0  0  0  0  0
   -3.1164    1.7598  -18.7554 H   0  0  0  0  0  0  0  0  0  0  0  0
   -4.6780    0.6229  -17.2120 H   0  0  0  0  0  0  0  0  0  0  0  0
   -7.7632   -1.7125  -18.6177 H   0  0  0  0  0  0  0  0  0  0  0  0
   -8.3799   -1.7639  -20.8940 H   0  0  0  0  0  0  0  0  0  0  0  0
   -7.5045   -0.8051  -22.1014 H   0  0  0  0  0  0  0  0  0  0  0  0
   -6.9197   -4.8397  -23.0004 C   0  0  0  0  0  0  0  0  0  0  0  0
   -8.0772   -5.8244  -22.9798 C   0  0  0  0  0  0  0  0  0  0  0  0
   -7.7006   -6.8333  -23.1705 H   0  0  0  0  0  0  0  0  0  0  0  0
   -8.4741   -5.8307  -21.9575 H   0  0  0  0  0  0  0  0  0  0  0  0
   -6.1667   -5.1114  -22.2583 H   0  0  0  0  0  0  0  0  0  0  0  0
   -6.4139   -4.8124  -23.9786 H   0  0  0  0  0  0  0  0  0  0  0  0
   -8.7232   -2.0568  -23.4783 H   0  0  0  0  0  0  0  0  0  0  0  0
   -9.5415   -3.2234  -22.4612 H   0  0  0  0  0  0  0  0  0  0  0  0
   -9.9332   -3.6195  -24.9333 H   0  0  0  0  0  0  0  0  0  0  0  0
   -8.2129   -3.8850  -25.1604 H   0  0  0  0  0  0  0  0  0  0  0  0
  -10.1413   -5.4130  -23.3867 H   0  0  0  0  0  0  0  0  0  0  0  0
   -9.3384   -7.4818  -24.5327 H   0  0  0  0  0  0  0  0  0  0  0  0
   -7.3078   -6.6971  -25.6863 H   0  0  0  0  0  0  0  0  0  0  0  0
   -8.3256   -5.6808  -26.7399 H   0  0  0  0  0  0  0  0  0  0  0  0
   -8.4863   -7.4452  -26.7599 H   0  0  0  0  0  0  0  0  0  0  0  0
  1  2  1  0
  2  3  1  0
  3  4  1  0
  3  5  1  0
  3  6  1  0
  2  7  1  0
  7  8  1  0
  8  9  1  0
  9 10  1  0
 10 11  1  0
 11 12  2  0
 11 13  1  0
 13 14  1  0
 14 15  2  0
 15 16  1  0
 16 17  2  0
 17 18  1  0
 18 19  2  0
 19 20  1  0
 20 21  2  0
 21 22  1  0
 22 23  2  0
 22 24  1  0
 21 25  1  0
 20 26  1  0
 19 27  1  0
 17 28  1  0
 15 29  1  0
 13 30  1  0
 13 31  1  0
 10 32  1  0
 32 33  1  0
 33 34  1  0
 33 35  1  0
 32 36  1  0
 32 37  1  0
  9 38  1  0
  9 39  1  0
  8 40  1  0
  8 41  1  0
  7 42  1  0
  2 43  1  0
  1 44  1  0
  1 45  1  0
  1 46  1  0
 33  7  1  0
 23 14  1  0
 23 18  1  0
M  END
>  <cnnaffinities>  (46) 
[5.35689, 5.36824]

>  <score>  (46) 
5.35689

>  <index>  (46) 
48

>  <Smiles>  (46) 
C(C(C([H])([H])[H])(C1(C(C(N(C(=O)C(c2c(nc(c3c(c(c(c(c23)[H])[H])[H])[H])[H])[H])([H])[H])C(C1([H])[H])([H])[H])([H])[H])([H])[H])[H])[H])([H])([H])[H]

>  <h>  (46) 
<NA>

>  <Training>  (46) 
True

>  <Success>  (46) 
True

>  <enamine_searched>  (46) 
False

>  <enamine_id>  (46) 
nan

$$$$

     RDKit          3D

 67 72  0  0  0  0  0  0  0  0999 V2000
   -6.8756    0.3596  -29.2873 C   0  0  0  0  0  0  0  0  0  0  0  0
   -7.2671    0.8270  -27.9737 N   0  0  0  0  0  0  0  0  0  0  0  0
   -6.6784    0.2787  -26.8818 C   0  0  0  0  0  0  0  0  0  0  0  0
   -5.8166   -0.5850  -26.9473 O   0  0  0  0  0  0  0  0  0  0  0  0
   -7.2041    0.8095  -25.5485 C   0  0  0  0  0  0  0  0  0  0  0  0
   -8.2770   -0.0235  -25.0506 N   0  0  0  0  0  0  0  0  0  0  0  0
   -7.9659   -1.3225  -24.4802 C   0  0  0  0  0  0  0  0  0  0  0  0
   -8.7763   -1.5491  -23.1744 C   0  0  2  0  0  0  0  0  0  0  0  0
   -8.2390   -0.6178  -22.0544 C   0  0  0  0  0  0  0  0  0  0  0  0
   -8.4518    0.5638  -21.9002 O   0  0  0  0  0  0  0  0  0  0  0  0
   -7.4178   -1.3733  -21.2367 N   0  0  0  0  0  0  0  0  0  0  0  0
   -6.6230   -0.8097  -20.2107 C   0  0  0  0  0  0  0  0  0  0  0  0
   -6.9198   -1.0750  -18.8978 C   0  0  0  0  0  0  0  0  0  0  0  0
   -6.2395   -0.5781  -17.8343 N   0  0  0  0  0  0  0  0  0  0  0  0
   -5.2130    0.1961  -18.0958 C   0  0  0  0  0  0  0  0  0  0  0  0
   -4.7698    0.5192  -19.4090 C   0  0  0  0  0  0  0  0  0  0  0  0
   -3.6350    1.3430  -19.6259 C   0  0  0  0  0  0  0  0  0  0  0  0
   -3.2041    1.6109  -20.8945 C   0  0  0  0  0  0  0  0  0  0  0  0
   -3.8843    1.0652  -22.0067 C   0  0  0  0  0  0  0  0  0  0  0  0
   -4.9918    0.2750  -21.8252 C   0  0  0  0  0  0  0  0  0  0  0  0
   -5.4761   -0.0069  -20.5141 C   0  0  0  0  0  0  0  0  0  0  0  0
   -5.4980   -0.1415  -22.6938 H   0  0  0  0  0  0  0  0  0  0  0  0
   -3.5237    1.2753  -23.0092 H   0  0  0  0  0  0  0  0  0  0  0  0
   -2.3363    2.2437  -21.0564 H   0  0  0  0  0  0  0  0  0  0  0  0
   -3.1243    1.7490  -18.7561 H   0  0  0  0  0  0  0  0  0  0  0  0
   -4.6652    0.6053  -17.2462 H   0  0  0  0  0  0  0  0  0  0  0  0
   -7.7701   -1.7153  -18.6642 H   0  0  0  0  0  0  0  0  0  0  0  0
   -7.3021   -2.7608  -21.6242 C   0  0  0  0  0  0  0  0  0  0  0  0
   -8.5004   -2.9429  -22.5601 C   0  0  2  0  0  0  0  0  0  0  0  0
   -8.3425   -4.0720  -23.5809 C   0  0  0  0  0  0  0  0  0  0  0  0
   -8.3360   -5.3756  -22.9650 N   0  0  0  0  0  0  0  0  0  0  0  0
   -7.1656   -5.9081  -22.5017 C   0  0  0  0  0  0  0  0  0  0  0  0
   -5.8796   -5.5496  -22.8061 C   0  0  0  0  0  0  0  0  0  0  0  0
   -4.8855   -6.2493  -22.1609 N   0  0  0  0  0  0  0  0  0  0  0  0
   -5.3864   -7.1694  -21.4027 C   0  0  0  0  0  0  0  0  0  0  0  0
   -4.6075   -8.1306  -20.5657 C   0  0  0  0  0  0  0  0  0  0  0  0
   -5.0545   -9.1134  -20.6231 H   0  0  0  0  0  0  0  0  0  0  0  0
   -3.5912   -8.2645  -20.9414 H   0  0  0  0  0  0  0  0  0  0  0  0
   -4.6049   -7.8018  -19.5188 H   0  0  0  0  0  0  0  0  0  0  0  0
   -7.1376   -7.2515  -21.3980 S   0  0  0  0  0  0  0  0  0  0  0  0
   -5.6147   -4.7803  -23.5258 H   0  0  0  0  0  0  0  0  0  0  0  0
   -9.2158   -5.7733  -22.6680 H   0  0  0  0  0  0  0  0  0  0  0  0
   -7.3888   -3.9455  -24.1140 H   0  0  0  0  0  0  0  0  0  0  0  0
   -9.1609   -4.0294  -24.3114 H   0  0  0  0  0  0  0  0  0  0  0  0
   -9.3429   -3.1830  -21.9063 H   0  0  0  0  0  0  0  0  0  0  0  0
   -7.3483   -3.4131  -20.7510 H   0  0  0  0  0  0  0  0  0  0  0  0
   -6.3399   -2.9678  -22.1178 H   0  0  0  0  0  0  0  0  0  0  0  0
  -10.2342   -1.2851  -23.5102 C   0  0  0  0  0  0  0  0  0  0  0  0
  -11.2622   -1.8321  -22.7315 C   0  0  0  0  0  0  0  0  0  0  0  0
  -12.5760   -1.4761  -22.9639 C   0  0  0  0  0  0  0  0  0  0  0  0
  -13.7978   -2.0343  -21.8594 Cl  0  0  0  0  0  0  0  0  0  0  0  0
  -12.9384   -0.6652  -24.0390 C   0  0  0  0  0  0  0  0  0  0  0  0
  -11.9361   -0.1594  -24.8414 C   0  0  0  0  0  0  0  0  0  0  0  0
  -10.5981   -0.4242  -24.5588 C   0  0  0  0  0  0  0  0  0  0  0  0
   -9.5636    0.3159  -25.3497 C   0  0  0  0  0  0  0  0  0  0  0  0
   -9.8413    1.1895  -26.1670 O   0  0  0  0  0  0  0  0  0  0  0  0
  -12.1499    0.4731  -25.6956 H   0  0  0  0  0  0  0  0  0  0  0  0
  -13.9767   -0.4077  -24.2085 H   0  0  0  0  0  0  0  0  0  0  0  0
  -11.0659   -2.5192  -21.9177 H   0  0  0  0  0  0  0  0  0  0  0  0
   -6.8837   -1.3661  -24.3083 H   0  0  0  0  0  0  0  0  0  0  0  0
   -8.2124   -2.1137  -25.2073 H   0  0  0  0  0  0  0  0  0  0  0  0
   -6.3949    0.8094  -24.8107 H   0  0  0  0  0  0  0  0  0  0  0  0
   -7.5832    1.8295  -25.6580 H   0  0  0  0  0  0  0  0  0  0  0  0
   -8.1422    1.3173  -27.8404 H   0  0  0  0  0  0  0  0  0  0  0  0
   -7.0533   -0.7184  -29.3913 H   0  0  0  0  0  0  0  0  0  0  0  0
   -7.4459    0.9039  -30.0428 H   0  0  0  0  0  0  0  0  0  0  0  0
   -5.8064    0.5467  -29.4352 H   0  0  0  0  0  0  0  0  0  0  0  0
  1  2  1  0
  2  3  1  0
  3  4  2  0
  3  5  1  0
  5  6  1  0
  6  7  1  0
  8  7  1  6
  8  9  1  0
  9 10  2  0
  9 11  1  0
 11 12  1  0
 12 13  2  0
 13 14  1  0
 14 15  2  0
 15 16  1  0
 16 17  2  0
 17 18  1  0
 18 19  2  0
 19 20  1  0
 20 21  2  0
 20 22  1  0
 19 23  1  0
 18 24  1  0
 17 25  1  0
 15 26  1  0
 13 27  1  0
 11 28  1  0
 28 29  1  0
 29 30  1  0
 30 31  1  0
 31 32  1  0
 32 33  2  0
 33 34  1  0
 34 35  2  0
 35 36  1  0
 36 37  1  0
 36 38  1  0
 36 39  1  0
 35 40  1  0
 33 41  1  0
 31 42  1  0
 30 43  1  0
 30 44  1  0
 29 45  1  1
 28 46  1  0
 28 47  1  0
  8 48  1  0
 48 49  2  0
 49 50  1  0
 50 51  1  0
 50 52  2  0
 52 53  1  0
 53 54  2  0
 54 55  1  0
 55 56  2  0
 53 57  1  0
 52 58  1  0
 49 59  1  0
  7 60  1  0
  7 61  1  0
  5 62  1  0
  5 63  1  0
  2 64  1  0
  1 65  1  0
  1 66  1  0
  1 67  1  0
 55  6  1  0
 29  8  1  0
 40 32  1  0
 54 48  1  0
 21 12  1  0
 21 16  1  0
M  END
>  <cnnaffinities>  (47) 
[6.67526, 7.02655]

>  <score>  (47) 
6.67526

>  <index>  (47) 
49

>  <Smiles>  (47) 
C(N(C(=O)C(N1C([C@@]2(C(=O)N(c3c(nc(c4c(c(c(c(c34)[H])[H])[H])[H])[H])[H])C([C@@]2(C(N(c2c(nc(C([H])([H])[H])s2)[H])[H])([H])[H])[H])([H])[H])c2c(c(Cl)c(c(c2C1=O)[H])[H])[H])([H])[H])([H])[H])[H])([H])([H])[H]

>  <h>  (47) 
<NA>

>  <Training>  (47) 
True

>  <Success>  (47) 
True

>  <enamine_searched>  (47) 
False

>  <enamine_id>  (47) 
nan

$$$$

     RDKit          3D

 66 70  0  0  0  0  0  0  0  0999 V2000
   -6.9466    3.4112  -23.1133 C   0  0  0  0  0  0  0  0  0  0  0  0
   -7.6815    2.6362  -24.0968 N   0  0  0  0  0  0  0  0  0  0  0  0
   -7.0490    1.6386  -24.7636 C   0  0  0  0  0  0  0  0  0  0  0  0
   -5.8484    1.4480  -24.6635 O   0  0  0  0  0  0  0  0  0  0  0  0
   -7.9323    0.7776  -25.6718 C   0  0  0  0  0  0  0  0  0  0  0  0
   -8.8448   -0.0627  -24.9247 N   0  0  0  0  0  0  0  0  0  0  0  0
   -8.3787   -1.3296  -24.3852 C   0  0  0  0  0  0  0  0  0  0  0  0
   -9.0284   -1.6341  -23.0047 C   0  0  2  0  0  0  0  0  0  0  0  0
   -8.4186   -0.6526  -21.9767 C   0  0  0  0  0  0  0  0  0  0  0  0
   -8.6721    0.5276  -21.8504 O   0  0  0  0  0  0  0  0  0  0  0  0
   -7.4919   -1.3439  -21.2232 N   0  0  0  0  0  0  0  0  0  0  0  0
   -6.6856   -0.7619  -20.2143 C   0  0  0  0  0  0  0  0  0  0  0  0
   -6.9579   -1.0474  -18.8990 C   0  0  0  0  0  0  0  0  0  0  0  0
   -6.2573   -0.5732  -17.8417 N   0  0  0  0  0  0  0  0  0  0  0  0
   -5.2291    0.1966  -18.1060 C   0  0  0  0  0  0  0  0  0  0  0  0
   -4.8001    0.5305  -19.4212 C   0  0  0  0  0  0  0  0  0  0  0  0
   -3.6532    1.3398  -19.6389 C   0  0  0  0  0  0  0  0  0  0  0  0
   -3.2276    1.6153  -20.9087 C   0  0  0  0  0  0  0  0  0  0  0  0
   -3.9296    1.0907  -22.0178 C   0  0  0  0  0  0  0  0  0  0  0  0
   -5.0482    0.3112  -21.8345 C   0  0  0  0  0  0  0  0  0  0  0  0
   -5.5289    0.0242  -20.5249 C   0  0  0  0  0  0  0  0  0  0  0  0
   -5.5595   -0.0821  -22.7075 H   0  0  0  0  0  0  0  0  0  0  0  0
   -3.6057    1.3223  -23.0281 H   0  0  0  0  0  0  0  0  0  0  0  0
   -2.3494    2.2353  -21.0704 H   0  0  0  0  0  0  0  0  0  0  0  0
   -3.1326    1.7297  -18.7682 H   0  0  0  0  0  0  0  0  0  0  0  0
   -4.6729    0.5931  -17.2564 H   0  0  0  0  0  0  0  0  0  0  0  0
   -7.7952   -1.7023  -18.6595 H   0  0  0  0  0  0  0  0  0  0  0  0
   -7.3248   -2.7324  -21.5955 C   0  0  0  0  0  0  0  0  0  0  0  0
   -8.5699   -3.0149  -22.4493 C   0  0  2  0  0  0  0  0  0  0  0  0
   -8.3583   -4.0735  -23.5206 C   0  0  0  0  0  0  0  0  0  0  0  0
   -8.1124   -5.3208  -22.9137 O   0  0  0  0  0  0  0  0  0  0  0  0
   -7.5932   -6.2860  -23.8179 C   0  0  0  0  0  0  0  0  0  0  0  0
   -8.1184   -7.6491  -23.4113 C   0  0  0  0  0  0  0  0  0  0  0  0
   -9.2011   -7.7272  -23.5011 H   0  0  0  0  0  0  0  0  0  0  0  0
   -7.8308   -7.8466  -22.3749 H   0  0  0  0  0  0  0  0  0  0  0  0
   -7.6655   -8.4096  -24.0509 H   0  0  0  0  0  0  0  0  0  0  0  0
   -6.0705   -6.3022  -23.7937 C   0  0  0  0  0  0  0  0  0  0  0  0
   -5.7026   -7.0729  -24.4794 H   0  0  0  0  0  0  0  0  0  0  0  0
   -5.7279   -6.5526  -22.7864 H   0  0  0  0  0  0  0  0  0  0  0  0
   -5.6323   -5.3434  -24.0862 H   0  0  0  0  0  0  0  0  0  0  0  0
   -7.9354   -6.0380  -24.8344 H   0  0  0  0  0  0  0  0  0  0  0  0
   -7.5006   -3.7847  -24.1532 H   0  0  0  0  0  0  0  0  0  0  0  0
   -9.2496   -4.1287  -24.1726 H   0  0  0  0  0  0  0  0  0  0  0  0
   -9.3346   -3.3966  -21.7703 H   0  0  0  0  0  0  0  0  0  0  0  0
   -6.3839   -2.8979  -22.1447 H   0  0  0  0  0  0  0  0  0  0  0  0
   -7.2820   -3.3534  -20.6991 H   0  0  0  0  0  0  0  0  0  0  0  0
  -10.5368   -1.4846  -23.1621 C   0  0  0  0  0  0  0  0  0  0  0  0
  -11.4434   -2.1882  -22.3495 C   0  0  0  0  0  0  0  0  0  0  0  0
  -12.8033   -2.0293  -22.5301 C   0  0  0  0  0  0  0  0  0  0  0  0
  -13.6486   -2.7212  -21.7446 F   0  0  0  0  0  0  0  0  0  0  0  0
  -13.3306   -1.2344  -23.5390 C   0  0  0  0  0  0  0  0  0  0  0  0
  -12.4485   -0.5620  -24.3619 C   0  0  0  0  0  0  0  0  0  0  0  0
  -11.0701   -0.6398  -24.1500 C   0  0  0  0  0  0  0  0  0  0  0  0
  -10.1799    0.2235  -24.9938 C   0  0  0  0  0  0  0  0  0  0  0  0
  -10.6208    1.1231  -25.6966 O   0  0  0  0  0  0  0  0  0  0  0  0
  -12.8148    0.0604  -25.1699 H   0  0  0  0  0  0  0  0  0  0  0  0
  -14.4031   -1.1747  -23.6687 H   0  0  0  0  0  0  0  0  0  0  0  0
  -11.1266   -2.8912  -21.5866 H   0  0  0  0  0  0  0  0  0  0  0  0
   -7.2913   -1.2705  -24.2720 H   0  0  0  0  0  0  0  0  0  0  0  0
   -8.6188   -2.1367  -25.0932 H   0  0  0  0  0  0  0  0  0  0  0  0
   -7.2847    0.1707  -26.3086 H   0  0  0  0  0  0  0  0  0  0  0  0
   -8.5613    1.4017  -26.3113 H   0  0  0  0  0  0  0  0  0  0  0  0
   -8.6848    2.5896  -24.0173 H   0  0  0  0  0  0  0  0  0  0  0  0
   -6.5074    2.7556  -22.3480 H   0  0  0  0  0  0  0  0  0  0  0  0
   -7.6288    4.1241  -22.6461 H   0  0  0  0  0  0  0  0  0  0  0  0
   -6.1335    3.9587  -23.6003 H   0  0  0  0  0  0  0  0  0  0  0  0
  1  2  1  0
  2  3  1  0
  3  4  2  0
  3  5  1  0
  5  6  1  0
  6  7  1  0
  8  7  1  6
  8  9  1  0
  9 10  2  0
  9 11  1  0
 11 12  1  0
 12 13  2  0
 13 14  1  0
 14 15  2  0
 15 16  1  0
 16 17  2  0
 17 18  1  0
 18 19  2  0
 19 20  1  0
 20 21  2  0
 20 22  1  0
 19 23  1  0
 18 24  1  0
 17 25  1  0
 15 26  1  0
 13 27  1  0
 11 28  1  0
 28 29  1  0
 29 30  1  0
 30 31  1  0
 31 32  1  0
 32 33  1  0
 33 34  1  0
 33 35  1  0
 33 36  1  0
 32 37  1  0
 37 38  1  0
 37 39  1  0
 37 40  1  0
 32 41  1  0
 30 42  1  0
 30 43  1  0
 29 44  1  1
 28 45  1  0
 28 46  1  0
  8 47  1  0
 47 48  2  0
 48 49  1  0
 49 50  1  0
 49 51  2  0
 51 52  1  0
 52 53  2  0
 53 54  1  0
 54 55  2  0
 52 56  1  0
 51 57  1  0
 48 58  1  0
  7 59  1  0
  7 60  1  0
  5 61  1  0
  5 62  1  0
  2 63  1  0
  1 64  1  0
  1 65  1  0
  1 66  1  0
 54  6  1  0
 29  8  1  0
 53 47  1  0
 21 12  1  0
 21 16  1  0
M  END
>  <cnnaffinities>  (48) 
[6.81867, 6.82324]

>  <score>  (48) 
6.81867

>  <index>  (48) 
50

>  <Smiles>  (48) 
C(N(C(=O)C(N1C([C@@]2(C(=O)N(c3c(nc(c4c(c(c(c(c34)[H])[H])[H])[H])[H])[H])C([C@@]2(C(OC(C([H])([H])[H])(C([H])([H])[H])[H])([H])[H])[H])([H])[H])c2c(c(F)c(c(c2C1=O)[H])[H])[H])([H])[H])([H])[H])[H])([H])([H])[H]

>  <h>  (48) 
<NA>

>  <Training>  (48) 
True

>  <Success>  (48) 
True

>  <enamine_searched>  (48) 
False

>  <enamine_id>  (48) 
nan

$$$$

     RDKit          3D

 50 52  0  0  0  0  0  0  0  0999 V2000
   -9.8206   -3.7778  -25.4337 C   0  0  0  0  0  0  0  0  0  0  0  0
   -8.8032   -3.5049  -24.6220 C   0  0  0  0  0  0  0  0  0  0  0  0
   -8.6446   -2.1300  -24.0329 C   0  0  0  0  0  0  0  0  0  0  0  0
   -9.3244   -1.9862  -22.7454 N   0  0  0  0  0  0  0  0  0  0  0  0
   -8.6470   -1.3633  -21.6985 C   0  0  0  0  0  0  0  0  0  0  0  0
   -9.1184   -0.5132  -20.9753 O   0  0  0  0  0  0  0  0  0  0  0  0
   -7.3336   -1.7790  -21.5448 N   0  0  0  0  0  0  0  0  0  0  0  0
   -6.6282   -1.2343  -20.4447 C   0  0  0  0  0  0  0  0  0  0  0  0
   -7.0568   -1.4609  -19.1599 C   0  0  0  0  0  0  0  0  0  0  0  0
   -6.4997   -0.8987  -18.0612 N   0  0  0  0  0  0  0  0  0  0  0  0
   -5.4922   -0.0780  -18.2431 C   0  0  0  0  0  0  0  0  0  0  0  0
   -4.9477    0.2395  -19.5180 C   0  0  0  0  0  0  0  0  0  0  0  0
   -3.8716    1.1517  -19.6658 C   0  0  0  0  0  0  0  0  0  0  0  0
   -3.4083    1.4671  -20.9153 C   0  0  0  0  0  0  0  0  0  0  0  0
   -4.0084    0.9036  -22.0681 C   0  0  0  0  0  0  0  0  0  0  0  0
   -5.0531    0.0190  -21.9507 C   0  0  0  0  0  0  0  0  0  0  0  0
   -5.5340   -0.3436  -20.6639 C   0  0  0  0  0  0  0  0  0  0  0  0
   -5.5237   -0.4043  -22.8357 H   0  0  0  0  0  0  0  0  0  0  0  0
   -3.6512    1.1899  -23.0546 H   0  0  0  0  0  0  0  0  0  0  0  0
   -2.5960    2.1801  -21.0295 H   0  0  0  0  0  0  0  0  0  0  0  0
   -3.4501    1.5956  -18.7651 H   0  0  0  0  0  0  0  0  0  0  0  0
   -5.0593    0.4039  -17.3637 H   0  0  0  0  0  0  0  0  0  0  0  0
   -7.9256   -2.0917  -18.9715 H   0  0  0  0  0  0  0  0  0  0  0  0
   -7.0566   -2.6736  -21.9510 H   0  0  0  0  0  0  0  0  0  0  0  0
  -10.7495   -2.1189  -22.6629 C   0  0  0  0  0  0  0  0  0  0  0  0
  -11.6365   -1.4267  -23.4908 C   0  0  0  0  0  0  0  0  0  0  0  0
  -13.0102   -1.6321  -23.3588 C   0  0  0  0  0  0  0  0  0  0  0  0
  -13.5117   -2.5380  -22.4295 C   0  0  0  0  0  0  0  0  0  0  0  0
  -12.6195   -3.1894  -21.5838 C   0  0  0  0  0  0  0  0  0  0  0  0
  -13.2580   -4.2344  -20.3500 Cl  0  0  0  0  0  0  0  0  0  0  0  0
  -11.2488   -2.9973  -21.7056 C   0  0  0  0  0  0  0  0  0  0  0  0
  -10.5315   -3.5140  -21.0748 H   0  0  0  0  0  0  0  0  0  0  0  0
  -14.5795   -2.7274  -22.3623 H   0  0  0  0  0  0  0  0  0  0  0  0
  -13.6862   -1.0722  -24.0020 H   0  0  0  0  0  0  0  0  0  0  0  0
  -11.2434   -0.7289  -24.2257 H   0  0  0  0  0  0  0  0  0  0  0  0
   -7.5806   -1.9356  -23.8839 H   0  0  0  0  0  0  0  0  0  0  0  0
   -9.0289   -1.3800  -24.7393 H   0  0  0  0  0  0  0  0  0  0  0  0
   -7.7909   -4.5013  -24.1387 C   0  0  0  0  0  0  0  0  0  0  0  0
   -7.1261   -4.2985  -23.1231 O   0  0  0  0  0  0  0  0  0  0  0  0
   -7.6238   -5.6204  -24.8836 N   0  0  0  0  0  0  0  0  0  0  0  0
   -6.8967   -6.7482  -24.3340 C   0  0  0  0  0  0  0  0  0  0  0  0
   -7.7583   -7.6134  -23.4212 C   0  0  0  0  0  0  0  0  0  0  0  0
   -8.0578   -7.0408  -22.5378 H   0  0  0  0  0  0  0  0  0  0  0  0
   -7.1962   -8.4935  -23.0978 H   0  0  0  0  0  0  0  0  0  0  0  0
   -8.6622   -7.9502  -23.9410 H   0  0  0  0  0  0  0  0  0  0  0  0
   -6.0640   -6.3287  -23.7682 H   0  0  0  0  0  0  0  0  0  0  0  0
   -6.4818   -7.3321  -25.1600 H   0  0  0  0  0  0  0  0  0  0  0  0
   -8.2298   -5.7670  -25.6739 H   0  0  0  0  0  0  0  0  0  0  0  0
  -10.0467   -4.7652  -25.8298 H   0  0  0  0  0  0  0  0  0  0  0  0
  -10.5025   -2.9765  -25.7240 H   0  0  0  0  0  0  0  0  0  0  0  0
  1  2  2  0
  2  3  1  0
  3  4  1  0
  4  5  1  0
  5  6  2  0
  5  7  1  0
  7  8  1  0
  8  9  2  0
  9 10  1  0
 10 11  2  0
 11 12  1  0
 12 13  2  0
 13 14  1  0
 14 15  2  0
 15 16  1  0
 16 17  2  0
 16 18  1  0
 15 19  1  0
 14 20  1  0
 13 21  1  0
 11 22  1  0
  9 23  1  0
  7 24  1  0
  4 25  1  0
 25 26  2  0
 26 27  1  0
 27 28  2  0
 28 29  1  0
 29 30  1  0
 29 31  2  0
 31 32  1  0
 28 33  1  0
 27 34  1  0
 26 35  1  0
  3 36  1  0
  3 37  1  0
  2 38  1  0
 38 39  2  0
 38 40  1  0
 40 41  1  0
 41 42  1  0
 42 43  1  0
 42 44  1  0
 42 45  1  0
 41 46  1  0
 41 47  1  0
 40 48  1  0
  1 49  1  0
  1 50  1  0
 17  8  1  0
 31 25  1  0
 17 12  1  0
M  END
>  <cnnaffinities>  (49) 
[6.6883, 5.75575]

>  <score>  (49) 
6.6883

>  <index>  (49) 
51

>  <Smiles>  (49) 
C(=C(C(N(C(=O)N(c1c(nc(c2c(c(c(c(c12)[H])[H])[H])[H])[H])[H])[H])c1c(c(c(c(Cl)c1[H])[H])[H])[H])([H])[H])C(=O)N(C(C([H])([H])[H])([H])[H])[H])([H])[H]

>  <h>  (49) 
<NA>

>  <Training>  (49) 
True

>  <Success>  (49) 
True

>  <enamine_searched>  (49) 
False

>  <enamine_id>  (49) 
nan

$$$$

     RDKit          3D

 57 60  0  0  0  0  0  0  0  0999 V2000
   -0.4747   -3.2273  -27.8277 C   0  0  0  0  0  0  0  0  0  0  0  0
   -1.3345   -4.4708  -28.0297 C   0  0  0  0  0  0  0  0  0  0  0  0
   -2.0977   -4.8224  -26.7572 C   0  0  0  0  0  0  0  0  0  0  0  0
   -1.6137   -5.5640  -25.9229 O   0  0  0  0  0  0  0  0  0  0  0  0
   -3.3309   -4.2351  -26.5537 N   0  0  0  0  0  0  0  0  0  0  0  0
   -4.2452   -4.5820  -25.5222 C   0  0  0  0  0  0  0  0  0  0  0  0
   -4.3665   -5.9012  -25.0891 C   0  0  0  0  0  0  0  0  0  0  0  0
   -5.2735   -6.2123  -24.0813 C   0  0  0  0  0  0  0  0  0  0  0  0
   -6.0649   -5.2407  -23.4761 C   0  0  0  0  0  0  0  0  0  0  0  0
   -5.9449   -3.9156  -23.8997 C   0  0  0  0  0  0  0  0  0  0  0  0
   -6.7699   -2.8835  -23.3170 N   0  0  0  0  0  0  0  0  0  0  0  0
   -7.7554   -2.2103  -24.1582 C   0  0  0  0  0  0  0  0  0  0  0  0
   -9.1915   -2.5073  -23.7819 C   0  0  0  0  0  0  0  0  0  0  0  0
   -9.6396   -3.8276  -23.7555 C   0  0  0  0  0  0  0  0  0  0  0  0
  -10.9482   -4.1166  -23.3864 C   0  0  0  0  0  0  0  0  0  0  0  0
  -11.8274   -3.0970  -23.0407 C   0  0  0  0  0  0  0  0  0  0  0  0
  -11.3917   -1.7792  -23.0778 C   0  0  0  0  0  0  0  0  0  0  0  0
  -10.0822   -1.4881  -23.4485 C   0  0  0  0  0  0  0  0  0  0  0  0
   -9.7515   -0.4521  -23.4760 H   0  0  0  0  0  0  0  0  0  0  0  0
  -12.0708   -0.9751  -22.8168 H   0  0  0  0  0  0  0  0  0  0  0  0
  -12.8473   -3.3260  -22.7484 H   0  0  0  0  0  0  0  0  0  0  0  0
  -11.2934   -5.1413  -23.3743 H   0  0  0  0  0  0  0  0  0  0  0  0
   -8.9614   -4.6342  -24.0305 H   0  0  0  0  0  0  0  0  0  0  0  0
   -7.5775   -1.1284  -24.1641 H   0  0  0  0  0  0  0  0  0  0  0  0
   -7.5845   -2.5483  -25.1811 H   0  0  0  0  0  0  0  0  0  0  0  0
   -6.6566   -2.6528  -21.9492 C   0  0  0  0  0  0  0  0  0  0  0  0
   -5.9545   -3.3586  -21.2539 O   0  0  0  0  0  0  0  0  0  0  0  0
   -7.3911   -1.4612  -21.2867 C   0  0  0  0  0  0  0  0  0  0  0  0
   -6.5773   -0.8279  -20.1783 C   0  0  0  0  0  0  0  0  0  0  0  0
   -6.8721   -1.0459  -18.8540 C   0  0  0  0  0  0  0  0  0  0  0  0
   -6.1883   -0.5412  -17.7904 N   0  0  0  0  0  0  0  0  0  0  0  0
   -5.1577    0.2252  -18.0606 C   0  0  0  0  0  0  0  0  0  0  0  0
   -4.7214    0.5346  -19.3796 C   0  0  0  0  0  0  0  0  0  0  0  0
   -3.5923    1.3604  -19.6203 C   0  0  0  0  0  0  0  0  0  0  0  0
   -3.1930    1.6381  -20.9018 C   0  0  0  0  0  0  0  0  0  0  0  0
   -3.9078    1.0976  -21.9931 C   0  0  0  0  0  0  0  0  0  0  0  0
   -5.0048    0.2965  -21.7850 C   0  0  0  0  0  0  0  0  0  0  0  0
   -5.4467   -0.0057  -20.4695 C   0  0  0  0  0  0  0  0  0  0  0  0
   -5.5327   -0.1121  -22.6408 H   0  0  0  0  0  0  0  0  0  0  0  0
   -3.5870    1.3198  -23.0059 H   0  0  0  0  0  0  0  0  0  0  0  0
   -2.3315    2.2731  -21.0894 H   0  0  0  0  0  0  0  0  0  0  0  0
   -3.0523    1.7732  -18.7717 H   0  0  0  0  0  0  0  0  0  0  0  0
   -4.5998    0.6303  -17.2154 H   0  0  0  0  0  0  0  0  0  0  0  0
   -7.7211   -1.6717  -18.5867 H   0  0  0  0  0  0  0  0  0  0  0  0
   -8.3202   -1.8535  -20.8566 H   0  0  0  0  0  0  0  0  0  0  0  0
   -7.6859   -0.6972  -22.0123 H   0  0  0  0  0  0  0  0  0  0  0  0
   -5.0659   -3.6020  -24.9439 C   0  0  0  0  0  0  0  0  0  0  0  0
   -5.0164   -2.5659  -25.2680 H   0  0  0  0  0  0  0  0  0  0  0  0
   -6.7547   -5.5121  -22.6784 H   0  0  0  0  0  0  0  0  0  0  0  0
   -5.3454   -7.2406  -23.7420 H   0  0  0  0  0  0  0  0  0  0  0  0
   -3.7667   -6.6821  -25.5419 H   0  0  0  0  0  0  0  0  0  0  0  0
   -3.5907   -3.4569  -27.1368 H   0  0  0  0  0  0  0  0  0  0  0  0
   -0.6829   -5.3201  -28.2504 H   0  0  0  0  0  0  0  0  0  0  0  0
   -2.0046   -4.3421  -28.8864 H   0  0  0  0  0  0  0  0  0  0  0  0
   -1.1011   -2.3644  -27.5940 H   0  0  0  0  0  0  0  0  0  0  0  0
    0.2335   -3.3614  -27.0052 H   0  0  0  0  0  0  0  0  0  0  0  0
    0.1026   -2.9922  -28.7265 H   0  0  0  0  0  0  0  0  0  0  0  0
  1  2  1  0
  2  3  1  0
  3  4  2  0
  3  5  1  0
  5  6  1  0
  6  7  2  0
  7  8  1  0
  8  9  2  0
  9 10  1  0
 10 11  1  0
 11 12  1  0
 12 13  1  0
 13 14  2  0
 14 15  1  0
 15 16  2  0
 16 17  1  0
 17 18  2  0
 18 19  1  0
 17 20  1  0
 16 21  1  0
 15 22  1  0
 14 23  1  0
 12 24  1  0
 12 25  1  0
 11 26  1  0
 26 27  2  0
 26 28  1  0
 28 29  1  0
 29 30  2  0
 30 31  1  0
 31 32  2  0
 32 33  1  0
 33 34  2  0
 34 35  1  0
 35 36  2  0
 36 37  1  0
 37 38  2  0
 37 39  1  0
 36 40  1  0
 35 41  1  0
 34 42  1  0
 32 43  1  0
 30 44  1  0
 28 45  1  0
 28 46  1  0
 10 47  2  0
 47 48  1  0
  9 49  1  0
  8 50  1  0
  7 51  1  0
  5 52  1  0
  2 53  1  0
  2 54  1  0
  1 55  1  0
  1 56  1  0
  1 57  1  0
 47  6  1  0
 18 13  1  0
 38 29  1  0
 38 33  1  0
M  END
>  <cnnaffinities>  (50) 
[5.56926, 5.60465, 6.11296, 6.11293, 6.32514, 6.17652, 6.17689, 5.82797, 6.16842, 6.16672, 6.18222, 6.09833]

>  <score>  (50) 
5.56926

>  <index>  (50) 
52

>  <Smiles>  (50) 
C(C(C(=O)N(c1c(c(c(c(N(C(c2c(c(c(c(c2[H])[H])[H])[H])[H])([H])[H])C(=O)C(c2c(nc(c3c(c(c(c(c23)[H])[H])[H])[H])[H])[H])([H])[H])c1[H])[H])[H])[H])[H])([H])[H])([H])([H])[H]

>  <h>  (50) 
<NA>

>  <Training>  (50) 
True

>  <Success>  (50) 
True

>  <enamine_searched>  (50) 
False

>  <enamine_id>  (50) 
nan

$$$$

     RDKit          3D

 59 63  0  0  0  0  0  0  0  0999 V2000
  -10.5130   -0.5766  -29.2440 C   0  0  0  0  0  0  0  0  0  0  0  0
   -9.9068    0.8256  -29.2195 C   0  0  0  0  0  0  0  0  0  0  0  0
   -9.6545    1.2829  -27.8642 N   0  0  0  0  0  0  0  0  0  0  0  0
   -8.6061    0.7379  -27.1794 C   0  0  0  0  0  0  0  0  0  0  0  0
   -7.7324    0.0501  -27.6885 O   0  0  0  0  0  0  0  0  0  0  0  0
   -8.6497    1.0251  -25.6762 C   0  0  0  0  0  0  0  0  0  0  0  0
   -9.3309   -0.0503  -24.9812 N   0  0  0  0  0  0  0  0  0  0  0  0
   -8.5906   -1.2206  -24.5580 C   0  0  0  0  0  0  0  0  0  0  0  0
   -8.9591   -1.6288  -23.1109 C   0  0  2  0  0  0  0  0  0  0  0  0
   -8.2698   -0.6323  -22.1258 C   0  0  0  0  0  0  0  0  0  0  0  0
   -8.3896    0.5740  -22.1015 O   0  0  0  0  0  0  0  0  0  0  0  0
   -7.4349   -1.3487  -21.2857 N   0  0  0  0  0  0  0  0  0  0  0  0
   -6.6509   -0.7811  -20.2442 C   0  0  0  0  0  0  0  0  0  0  0  0
   -6.9405   -1.0615  -18.9298 C   0  0  0  0  0  0  0  0  0  0  0  0
   -6.2614   -0.5770  -17.8593 N   0  0  0  0  0  0  0  0  0  0  0  0
   -5.2334    0.1987  -18.1050 C   0  0  0  0  0  0  0  0  0  0  0  0
   -4.7837    0.5314  -19.4140 C   0  0  0  0  0  0  0  0  0  0  0  0
   -3.6402    1.3481  -19.6173 C   0  0  0  0  0  0  0  0  0  0  0  0
   -3.1965    1.6117  -20.8836 C   0  0  0  0  0  0  0  0  0  0  0  0
   -3.8639    1.0614  -21.9989 C   0  0  0  0  0  0  0  0  0  0  0  0
   -4.9770    0.2749  -21.8276 C   0  0  0  0  0  0  0  0  0  0  0  0
   -5.4863    0.0121  -20.5259 C   0  0  0  0  0  0  0  0  0  0  0  0
   -5.4690   -0.1627  -22.6900 H   0  0  0  0  0  0  0  0  0  0  0  0
   -3.4942    1.2618  -22.9997 H   0  0  0  0  0  0  0  0  0  0  0  0
   -2.3269    2.2432  -21.0393 H   0  0  0  0  0  0  0  0  0  0  0  0
   -3.1339    1.7509  -18.7443 H   0  0  0  0  0  0  0  0  0  0  0  0
   -4.6871    0.5901  -17.2474 H   0  0  0  0  0  0  0  0  0  0  0  0
   -7.7850   -1.7051  -18.6867 H   0  0  0  0  0  0  0  0  0  0  0  0
   -7.6783   -2.7727  -21.3368 C   0  0  0  0  0  0  0  0  0  0  0  0
   -8.3556   -3.0118  -22.7038 C   0  0  2  0  0  0  0  0  0  0  0  0
   -7.4305   -3.6807  -23.7330 C   0  0  0  0  0  0  0  0  0  0  0  0
   -7.9650   -3.8664  -24.6711 H   0  0  0  0  0  0  0  0  0  0  0  0
   -7.1001   -4.6587  -23.3675 H   0  0  0  0  0  0  0  0  0  0  0  0
   -6.5385   -3.0867  -23.9606 H   0  0  0  0  0  0  0  0  0  0  0  0
   -9.1811   -3.7170  -22.5743 H   0  0  0  0  0  0  0  0  0  0  0  0
   -8.3548   -3.0666  -20.5212 H   0  0  0  0  0  0  0  0  0  0  0  0
   -6.7303   -3.3124  -21.2155 H   0  0  0  0  0  0  0  0  0  0  0  0
  -10.4923   -1.6327  -23.0126 C   0  0  0  0  0  0  0  0  0  0  0  0
  -11.1491   -2.3332  -21.9898 C   0  0  0  0  0  0  0  0  0  0  0  0
  -12.5272   -2.2866  -21.8643 C   0  0  0  0  0  0  0  0  0  0  0  0
  -13.2945   -3.2011  -20.6005 Cl  0  0  0  0  0  0  0  0  0  0  0  0
  -13.3235   -1.5670  -22.7527 C   0  0  0  0  0  0  0  0  0  0  0  0
  -12.6860   -0.8407  -23.7403 C   0  0  0  0  0  0  0  0  0  0  0  0
  -11.3006   -0.8972  -23.8882 C   0  0  0  0  0  0  0  0  0  0  0  0
  -10.6898   -0.0478  -24.9497 C   0  0  0  0  0  0  0  0  0  0  0  0
  -11.3609    0.6654  -25.6995 O   0  0  0  0  0  0  0  0  0  0  0  0
  -13.2144   -0.1670  -24.4079 H   0  0  0  0  0  0  0  0  0  0  0  0
  -14.4055   -1.5829  -22.6626 H   0  0  0  0  0  0  0  0  0  0  0  0
  -10.6001   -2.9068  -21.2560 H   0  0  0  0  0  0  0  0  0  0  0  0
   -7.5264   -1.0014  -24.6626 H   0  0  0  0  0  0  0  0  0  0  0  0
   -8.8107   -2.0626  -25.2242 H   0  0  0  0  0  0  0  0  0  0  0  0
   -7.6395    1.1190  -25.2628 H   0  0  0  0  0  0  0  0  0  0  0  0
   -9.1848    1.9568  -25.4749 H   0  0  0  0  0  0  0  0  0  0  0  0
  -10.4830    1.4534  -27.2970 H   0  0  0  0  0  0  0  0  0  0  0  0
   -8.9504    0.8459  -29.7506 H   0  0  0  0  0  0  0  0  0  0  0  0
  -10.5716    1.5580  -29.6897 H   0  0  0  0  0  0  0  0  0  0  0  0
  -10.7260   -0.9041  -30.2644 H   0  0  0  0  0  0  0  0  0  0  0  0
   -9.8117   -1.2868  -28.7956 H   0  0  0  0  0  0  0  0  0  0  0  0
  -11.4486   -0.6086  -28.6726 H   0  0  0  0  0  0  0  0  0  0  0  0
  1  2  1  0
  2  3  1  0
  3  4  1  0
  4  5  2  0
  4  6  1  0
  6  7  1  0
  7  8  1  0
  9  8  1  6
  9 10  1  0
 10 11  2  0
 10 12  1  0
 12 13  1  0
 13 14  2  0
 14 15  1  0
 15 16  2  0
 16 17  1  0
 17 18  2  0
 18 19  1  0
 19 20  2  0
 20 21  1  0
 21 22  2  0
 21 23  1  0
 20 24  1  0
 19 25  1  0
 18 26  1  0
 16 27  1  0
 14 28  1  0
 12 29  1  0
 29 30  1  0
 30 31  1  0
 31 32  1  0
 31 33  1  0
 31 34  1  0
 30 35  1  1
 29 36  1  0
 29 37  1  0
  9 38  1  0
 38 39  2  0
 39 40  1  0
 40 41  1  0
 40 42  2  0
 42 43  1  0
 43 44  2  0
 44 45  1  0
 45 46  2  0
 43 47  1  0
 42 48  1  0
 39 49  1  0
  8 50  1  0
  8 51  1  0
  6 52  1  0
  6 53  1  0
  3 54  1  0
  2 55  1  0
  2 56  1  0
  1 57  1  0
  1 58  1  0
  1 59  1  0
 45  7  1  0
 30  9  1  0
 44 38  1  0
 22 13  1  0
 22 17  1  0
M  END
>  <cnnaffinities>  (51) 
[6.3931, 6.42401, 6.3581, 6.88396, 6.87843]

>  <score>  (51) 
6.3931

>  <index>  (51) 
53

>  <Smiles>  (51) 
C(C(N(C(=O)C(N1C([C@@]2(C(=O)N(c3c(nc(c4c(c(c(c(c34)[H])[H])[H])[H])[H])[H])C([C@@]2(C([H])([H])[H])[H])([H])[H])c2c(c(Cl)c(c(c2C1=O)[H])[H])[H])([H])[H])([H])[H])[H])([H])[H])([H])([H])[H]

>  <h>  (51) 
<NA>

>  <Training>  (51) 
True

>  <Success>  (51) 
True

>  <enamine_searched>  (51) 
False

>  <enamine_id>  (51) 
nan

$$$$

     RDKit          3D

 40 43  0  0  0  0  0  0  0  0999 V2000
   -9.5749   -1.3386  -24.0572 C   0  0  0  0  0  0  0  0  0  0  0  0
   -8.7820   -1.6246  -22.8764 N   0  0  0  0  0  0  0  0  0  0  0  0
   -8.4644   -2.8429  -22.3330 C   0  0  0  0  0  0  0  0  0  0  0  0
   -8.9105   -4.1509  -22.9024 C   0  0  0  0  0  0  0  0  0  0  0  0
   -8.0828   -4.5388  -24.1091 C   0  0  0  0  0  0  0  0  0  0  0  0
   -8.5953   -4.4430  -25.3996 C   0  0  0  0  0  0  0  0  0  0  0  0
   -7.8116   -4.7744  -26.5010 C   0  0  0  0  0  0  0  0  0  0  0  0
   -6.5005   -5.2001  -26.3162 C   0  0  0  0  0  0  0  0  0  0  0  0
   -5.9776   -5.2878  -25.0291 C   0  0  0  0  0  0  0  0  0  0  0  0
   -6.7631   -4.9518  -23.9322 C   0  0  0  0  0  0  0  0  0  0  0  0
   -6.3517   -5.0116  -22.9273 H   0  0  0  0  0  0  0  0  0  0  0  0
   -4.9535   -5.6193  -24.8826 H   0  0  0  0  0  0  0  0  0  0  0  0
   -5.8879   -5.4616  -27.1740 H   0  0  0  0  0  0  0  0  0  0  0  0
   -8.2281   -4.7035  -27.5012 H   0  0  0  0  0  0  0  0  0  0  0  0
   -9.6183   -4.1031  -25.5458 H   0  0  0  0  0  0  0  0  0  0  0  0
   -9.9754   -4.1078  -23.1625 H   0  0  0  0  0  0  0  0  0  0  0  0
   -8.8081   -4.8951  -22.1070 H   0  0  0  0  0  0  0  0  0  0  0  0
   -7.6572   -2.7298  -21.3202 N   0  0  0  0  0  0  0  0  0  0  0  0
   -7.4048   -1.3858  -21.2120 N   0  0  0  0  0  0  0  0  0  0  0  0
   -6.5810   -0.8349  -20.1826 C   0  0  0  0  0  0  0  0  0  0  0  0
   -6.8873   -1.0595  -18.8625 C   0  0  0  0  0  0  0  0  0  0  0  0
   -6.1968   -0.5430  -17.8149 N   0  0  0  0  0  0  0  0  0  0  0  0
   -5.1630    0.2243  -18.0710 C   0  0  0  0  0  0  0  0  0  0  0  0
   -4.7238    0.5328  -19.3883 C   0  0  0  0  0  0  0  0  0  0  0  0
   -3.5880    1.3575  -19.6247 C   0  0  0  0  0  0  0  0  0  0  0  0
   -3.1797    1.6157  -20.9048 C   0  0  0  0  0  0  0  0  0  0  0  0
   -3.8788    1.0571  -21.9981 C   0  0  0  0  0  0  0  0  0  0  0  0
   -4.9728    0.2564  -21.7939 C   0  0  0  0  0  0  0  0  0  0  0  0
   -5.4405   -0.0131  -20.4787 C   0  0  0  0  0  0  0  0  0  0  0  0
   -5.4952   -0.1772  -22.6389 H   0  0  0  0  0  0  0  0  0  0  0  0
   -3.5455    1.2562  -23.0114 H   0  0  0  0  0  0  0  0  0  0  0  0
   -2.3162    2.2455  -21.0961 H   0  0  0  0  0  0  0  0  0  0  0  0
   -3.0516    1.7752  -18.7752 H   0  0  0  0  0  0  0  0  0  0  0  0
   -4.6055    0.6263  -17.2204 H   0  0  0  0  0  0  0  0  0  0  0  0
   -7.7382   -1.6780  -18.5923 H   0  0  0  0  0  0  0  0  0  0  0  0
   -8.1141   -0.6451  -22.1482 C   0  0  0  0  0  0  0  0  0  0  0  0
   -8.1402    0.5577  -22.3052 O   0  0  0  0  0  0  0  0  0  0  0  0
   -9.0058   -1.4809  -24.9813 H   0  0  0  0  0  0  0  0  0  0  0  0
   -9.8973   -0.2998  -24.0231 H   0  0  0  0  0  0  0  0  0  0  0  0
  -10.4726   -1.9607  -24.1007 H   0  0  0  0  0  0  0  0  0  0  0  0
  1  2  1  0
  2  3  1  0
  3  4  1  0
  4  5  1  0
  5  6  2  0
  6  7  1  0
  7  8  2  0
  8  9  1  0
  9 10  2  0
 10 11  1  0
  9 12  1  0
  8 13  1  0
  7 14  1  0
  6 15  1  0
  4 16  1  0
  4 17  1  0
  3 18  2  0
 18 19  1  0
 19 20  1  0
 20 21  2  0
 21 22  1  0
 22 23  2  0
 23 24  1  0
 24 25  2  0
 25 26  1  0
 26 27  2  0
 27 28  1  0
 28 29  2  0
 28 30  1  0
 27 31  1  0
 26 32  1  0
 25 33  1  0
 23 34  1  0
 21 35  1  0
 19 36  1  0
 36 37  2  0
  1 38  1  0
  1 39  1  0
  1 40  1  0
 36  2  1  0
 10  5  1  0
 29 20  1  0
 29 24  1  0
M  END
>  <cnnaffinities>  (52) 
[5.46095, 5.46183, 5.49181, 5.49041]

>  <score>  (52) 
5.46095

>  <index>  (52) 
54

>  <Smiles>  (52) 
C(n1c(C(c2c(c(c(c(c2[H])[H])[H])[H])[H])([H])[H])nn(c2c(nc(c3c(c(c(c(c23)[H])[H])[H])[H])[H])[H])c1=O)([H])([H])[H]

>  <h>  (52) 
<NA>

>  <Training>  (52) 
True

>  <Success>  (52) 
True

>  <enamine_searched>  (52) 
False

>  <enamine_id>  (52) 
nan

$$$$

     RDKit          3D

 61 66  0  0  0  0  0  0  0  0999 V2000
   -8.1161   -6.3802  -23.6844 C   0  0  0  0  0  0  0  0  0  0  0  0
   -8.3218   -5.2839  -22.8356 O   0  0  0  0  0  0  0  0  0  0  0  0
   -8.3433   -4.0671  -23.5311 C   0  0  0  0  0  0  0  0  0  0  0  0
   -8.5323   -2.9429  -22.5324 C   0  0  1  0  0  0  0  0  0  0  0  0
   -7.3643   -2.7503  -21.5629 C   0  0  0  0  0  0  0  0  0  0  0  0
   -7.4484   -1.3463  -21.2263 N   0  0  0  0  0  0  0  0  0  0  0  0
   -6.6382   -0.7879  -20.2106 C   0  0  0  0  0  0  0  0  0  0  0  0
   -6.9247   -1.0651  -18.8976 C   0  0  0  0  0  0  0  0  0  0  0  0
   -6.2430   -0.5739  -17.8340 N   0  0  0  0  0  0  0  0  0  0  0  0
   -5.2185    0.2018  -18.0991 C   0  0  0  0  0  0  0  0  0  0  0  0
   -4.7754    0.5227  -19.4137 C   0  0  0  0  0  0  0  0  0  0  0  0
   -3.6373    1.3430  -19.6268 C   0  0  0  0  0  0  0  0  0  0  0  0
   -3.2019    1.6095  -20.8940 C   0  0  0  0  0  0  0  0  0  0  0  0
   -3.8761    1.0613  -22.0081 C   0  0  0  0  0  0  0  0  0  0  0  0
   -4.9863    0.2736  -21.8300 C   0  0  0  0  0  0  0  0  0  0  0  0
   -5.4814   -0.0001  -20.5199 C   0  0  0  0  0  0  0  0  0  0  0  0
   -5.4822   -0.1458  -22.7019 H   0  0  0  0  0  0  0  0  0  0  0  0
   -3.5076    1.2659  -23.0088 H   0  0  0  0  0  0  0  0  0  0  0  0
   -2.3348    2.2423  -21.0520 H   0  0  0  0  0  0  0  0  0  0  0  0
   -3.1323    1.7504  -18.7548 H   0  0  0  0  0  0  0  0  0  0  0  0
   -4.6648    0.6081  -17.2526 H   0  0  0  0  0  0  0  0  0  0  0  0
   -7.7745   -1.7069  -18.6686 H   0  0  0  0  0  0  0  0  0  0  0  0
   -8.2462   -0.5983  -22.0726 C   0  0  0  0  0  0  0  0  0  0  0  0
   -8.4298    0.5908  -21.9592 O   0  0  0  0  0  0  0  0  0  0  0  0
   -8.7762   -1.5577  -23.1751 C   0  0  1  0  0  0  0  0  0  0  0  0
   -7.9326   -1.3662  -24.4512 C   0  0  0  0  0  0  0  0  0  0  0  0
   -8.1859   -0.0597  -25.0175 N   0  0  0  0  0  0  0  0  0  0  0  0
   -7.0732    0.6717  -25.5800 C   0  0  0  0  0  0  0  0  0  0  0  0
   -6.6127    0.1022  -26.8865 C   0  0  0  0  0  0  0  0  0  0  0  0
   -5.7143   -0.8671  -27.1799 C   0  0  0  0  0  0  0  0  0  0  0  0
   -5.7061   -1.0011  -28.5562 N   0  0  0  0  0  4  0  0  0  0  0  0
   -6.5875   -0.1402  -29.0804 C   0  0  0  0  0  0  0  0  0  0  0  0
   -7.1712    0.5323  -28.0767 N   0  0  0  0  0  0  0  0  0  0  0  0
   -7.9581    1.1800  -28.1233 H   0  0  0  0  0  0  0  0  0  0  0  0
   -6.7469    0.0182  -30.1334 H   0  0  0  0  0  0  0  0  0  0  0  0
   -5.1518   -1.6785  -29.0638 H   0  0  0  0  0  0  0  0  0  0  0  0
   -5.0769   -1.4854  -26.5535 H   0  0  0  0  0  0  0  0  0  0  0  0
   -6.2673    0.6637  -24.8370 H   0  0  0  0  0  0  0  0  0  0  0  0
   -7.4077    1.7075  -25.7055 H   0  0  0  0  0  0  0  0  0  0  0  0
   -9.4477    0.2656  -25.4209 C   0  0  0  0  0  0  0  0  0  0  0  0
   -9.6686    1.0788  -26.3148 O   0  0  0  0  0  0  0  0  0  0  0  0
  -10.5202   -0.4277  -24.6455 C   0  0  0  0  0  0  0  0  0  0  0  0
  -11.8403   -0.1128  -24.9582 C   0  0  0  0  0  0  0  0  0  0  0  0
  -12.8752   -0.5740  -24.1708 C   0  0  0  0  0  0  0  0  0  0  0  0
  -12.5608   -1.4032  -23.0957 C   0  0  0  0  0  0  0  0  0  0  0  0
  -13.8185   -1.9376  -22.0258 Cl  0  0  0  0  0  0  0  0  0  0  0  0
  -11.2678   -1.8055  -22.8252 C   0  0  0  0  0  0  0  0  0  0  0  0
  -10.2099   -1.2879  -23.5791 C   0  0  0  0  0  0  0  0  0  0  0  0
  -11.1152   -2.5392  -22.0443 H   0  0  0  0  0  0  0  0  0  0  0  0
  -13.9033   -0.2961  -24.3703 H   0  0  0  0  0  0  0  0  0  0  0  0
  -12.0126    0.4962  -25.8362 H   0  0  0  0  0  0  0  0  0  0  0  0
   -6.8638   -1.4627  -24.2378 H   0  0  0  0  0  0  0  0  0  0  0  0
   -8.1950   -2.1543  -25.1731 H   0  0  0  0  0  0  0  0  0  0  0  0
   -7.4766   -3.3439  -20.6606 H   0  0  0  0  0  0  0  0  0  0  0  0
   -6.3947   -3.0136  -22.0104 H   0  0  0  0  0  0  0  0  0  0  0  0
   -9.3970   -3.2041  -21.9226 H   0  0  0  0  0  0  0  0  0  0  0  0
   -9.1600   -4.0470  -24.2729 H   0  0  0  0  0  0  0  0  0  0  0  0
   -7.4026   -3.9160  -24.0881 H   0  0  0  0  0  0  0  0  0  0  0  0
   -7.1444   -6.3215  -24.1964 H   0  0  0  0  0  0  0  0  0  0  0  0
   -8.9022   -6.4606  -24.4498 H   0  0  0  0  0  0  0  0  0  0  0  0
   -8.1342   -7.2792  -23.0665 H   0  0  0  0  0  0  0  0  0  0  0  0
  1  2  1  0
  2  3  1  0
  3  4  1  0
  4  5  1  0
  5  6  1  0
  6  7  1  0
  7  8  2  0
  8  9  1  0
  9 10  2  0
 10 11  1  0
 11 12  2  0
 12 13  1  0
 13 14  2  0
 14 15  1  0
 15 16  2  0
 15 17  1  0
 14 18  1  0
 13 19  1  0
 12 20  1  0
 10 21  1  0
  8 22  1  0
  6 23  1  0
 23 24  2  0
 23 25  1  0
 25 26  1  6
 26 27  1  0
 27 28  1  0
 28 29  1  0
 29 30  2  0
 30 31  1  0
 31 32  2  0
 32 33  1  0
 33 34  1  0
 32 35  1  0
 31 36  1  0
 30 37  1  0
 28 38  1  0
 28 39  1  0
 27 40  1  0
 40 41  2  0
 40 42  1  0
 42 43  2  0
 43 44  1  0
 44 45  2  0
 45 46  1  0
 45 47  1  0
 47 48  2  0
 47 49  1  0
 44 50  1  0
 43 51  1  0
 26 52  1  0
 26 53  1  0
  5 54  1  0
  5 55  1  0
  4 56  1  1
  3 57  1  0
  3 58  1  0
  1 59  1  0
  1 60  1  0
  1 61  1  0
 25  4  1  0
 33 29  1  0
 48 42  1  0
 16  7  1  0
 48 25  1  0
 16 11  1  0
M  CHG  1  31   1
M  END
>  <cnnaffinities>  (53) 
[6.27043, 6.69109]

>  <score>  (53) 
6.27043

>  <index>  (53) 
55

>  <Smiles>  (53) 
C(OC([C@]1(C(N(c2c(nc(c3c(c(c(c(c23)[H])[H])[H])[H])[H])[H])C(=O)[C@]21C(N(C(c1c([n+](c(n1[H])[H])[H])[H])([H])[H])C(=O)c1c(c(c(Cl)c(c21)[H])[H])[H])([H])[H])([H])[H])[H])([H])[H])([H])([H])[H]

>  <h>  (53) 
<NA>

>  <Training>  (53) 
True

>  <Success>  (53) 
True

>  <enamine_searched>  (53) 
False

>  <enamine_id>  (53) 
nan

$$$$

     RDKit          3D

 57 62  0  0  0  0  0  0  0  0999 V2000
  -10.1548   -0.9456  -23.7657 C   0  0  0  0  0  0  0  0  0  0  0  0
   -8.8377   -1.2933  -23.0780 C   0  0  1  0  0  0  0  0  0  0  0  0
   -8.4028   -0.3676  -21.9316 C   0  0  0  0  0  0  0  0  0  0  0  0
   -7.4084   -1.1791  -21.2319 N   0  0  0  0  0  0  0  0  0  0  0  0
   -6.6012   -0.7150  -20.1615 C   0  0  0  0  0  0  0  0  0  0  0  0
   -6.8941   -1.0163  -18.8561 C   0  0  0  0  0  0  0  0  0  0  0  0
   -6.2205   -0.5162  -17.7868 N   0  0  0  0  0  0  0  0  0  0  0  0
   -5.2070    0.2843  -18.0212 C   0  0  0  0  0  0  0  0  0  0  0  0
   -4.7532    0.6300  -19.3287 C   0  0  0  0  0  0  0  0  0  0  0  0
   -3.6117    1.4482  -19.5602 C   0  0  0  0  0  0  0  0  0  0  0  0
   -3.1808    1.6797  -20.8401 C   0  0  0  0  0  0  0  0  0  0  0  0
   -3.8673    1.1226  -21.9435 C   0  0  0  0  0  0  0  0  0  0  0  0
   -4.9860    0.3545  -21.7443 C   0  0  0  0  0  0  0  0  0  0  0  0
   -5.4609    0.1024  -20.4327 C   0  0  0  0  0  0  0  0  0  0  0  0
   -5.5070   -0.0886  -22.5850 H   0  0  0  0  0  0  0  0  0  0  0  0
   -3.5060    1.2965  -22.9538 H   0  0  0  0  0  0  0  0  0  0  0  0
   -2.3013    2.2925  -21.0224 H   0  0  0  0  0  0  0  0  0  0  0  0
   -3.0823    1.8747  -18.7091 H   0  0  0  0  0  0  0  0  0  0  0  0
   -4.6755    0.6779  -17.1522 H   0  0  0  0  0  0  0  0  0  0  0  0
   -7.7116   -1.6936  -18.6213 H   0  0  0  0  0  0  0  0  0  0  0  0
   -7.5325   -2.5301  -21.4969 C   0  0  0  0  0  0  0  0  0  0  0  0
   -6.8232   -3.3979  -21.0348 O   0  0  0  0  0  0  0  0  0  0  0  0
   -8.7118   -2.7266  -22.4597 C   0  0  1  0  0  0  0  0  0  0  0  0
   -9.9381   -3.1016  -21.5791 C   0  0  0  0  0  0  0  0  0  0  0  0
  -11.0867   -3.5499  -22.3560 N   0  0  0  0  0  0  0  0  0  0  0  0
  -12.4040   -3.5760  -21.7110 C   0  0  0  0  0  0  0  0  0  0  0  0
  -13.3422   -2.4457  -22.0560 C   0  0  0  0  0  0  0  0  0  0  0  0
  -13.5254   -2.1464  -23.3399 N   0  0  0  0  0  0  0  0  0  0  0  0
  -14.4328   -1.1890  -23.5813 C   0  0  0  0  0  0  0  0  0  0  0  0
  -15.0870   -0.5051  -22.5694 C   0  0  0  0  0  0  0  0  0  0  0  0
  -14.8099   -0.9016  -21.2695 C   0  0  0  0  0  0  0  0  0  0  0  0
  -13.9805   -1.9044  -21.0070 N   0  0  0  0  0  0  0  0  0  0  0  0
  -15.2672   -0.4073  -20.4071 H   0  0  0  0  0  0  0  0  0  0  0  0
  -15.7673    0.3157  -22.7721 H   0  0  0  0  0  0  0  0  0  0  0  0
  -14.6328   -0.9677  -24.6306 H   0  0  0  0  0  0  0  0  0  0  0  0
  -12.8967   -4.5110  -21.9949 H   0  0  0  0  0  0  0  0  0  0  0  0
  -12.3153   -3.5798  -20.6295 H   0  0  0  0  0  0  0  0  0  0  0  0
  -10.8905   -4.4647  -23.3560 C   0  0  0  0  0  0  0  0  0  0  0  0
  -11.8066   -5.1333  -23.7833 O   0  0  0  0  0  0  0  0  0  0  0  0
   -9.5093   -4.6354  -23.9005 C   0  0  0  0  0  0  0  0  0  0  0  0
   -9.3334   -5.6251  -24.8703 C   0  0  0  0  0  0  0  0  0  0  0  0
   -8.0872   -5.8629  -25.4118 C   0  0  0  0  0  0  0  0  0  0  0  0
   -7.0323   -5.0751  -24.9650 C   0  0  0  0  0  0  0  0  0  0  0  0
   -5.8107   -5.3276  -25.4623 F   0  0  0  0  0  0  0  0  0  0  0  0
   -7.1850   -4.0628  -24.0341 C   0  0  0  0  0  0  0  0  0  0  0  0
   -8.4515   -3.8298  -23.4719 C   0  0  0  0  0  0  0  0  0  0  0  0
   -6.3025   -3.5151  -23.7212 H   0  0  0  0  0  0  0  0  0  0  0  0
   -7.9236   -6.6467  -26.1442 H   0  0  0  0  0  0  0  0  0  0  0  0
  -10.2104   -6.1902  -25.1738 H   0  0  0  0  0  0  0  0  0  0  0  0
   -9.6266   -3.8888  -20.8762 H   0  0  0  0  0  0  0  0  0  0  0  0
  -10.2672   -2.2374  -20.9924 H   0  0  0  0  0  0  0  0  0  0  0  0
   -7.9822    0.5795  -22.2824 H   0  0  0  0  0  0  0  0  0  0  0  0
   -9.2389   -0.1103  -21.2671 H   0  0  0  0  0  0  0  0  0  0  0  0
   -8.0439   -1.2435  -23.8334 H   0  0  0  0  0  0  0  0  0  0  0  0
  -10.0983    0.0461  -24.2255 H   0  0  0  0  0  0  0  0  0  0  0  0
  -11.0054   -0.9306  -23.0804 H   0  0  0  0  0  0  0  0  0  0  0  0
  -10.3723   -1.6743  -24.5567 H   0  0  0  0  0  0  0  0  0  0  0  0
  1  2  1  0
  2  3  1  0
  3  4  1  0
  4  5  1  0
  5  6  2  0
  6  7  1  0
  7  8  2  0
  8  9  1  0
  9 10  2  0
 10 11  1  0
 11 12  2  0
 12 13  1  0
 13 14  2  0
 13 15  1  0
 12 16  1  0
 11 17  1  0
 10 18  1  0
  8 19  1  0
  6 20  1  0
  4 21  1  0
 21 22  2  0
 21 23  1  0
 23 24  1  1
 24 25  1  0
 25 26  1  0
 26 27  1  0
 27 28  2  0
 28 29  1  0
 29 30  2  0
 30 31  1  0
 31 32  2  0
 31 33  1  0
 30 34  1  0
 29 35  1  0
 26 36  1  0
 26 37  1  0
 25 38  1  0
 38 39  2  0
 38 40  1  0
 40 41  2  0
 41 42  1  0
 42 43  2  0
 43 44  1  0
 43 45  1  0
 45 46  2  0
 45 47  1  0
 42 48  1  0
 41 49  1  0
 24 50  1  0
 24 51  1  0
  3 52  1  0
  3 53  1  0
  2 54  1  6
  1 55  1  0
  1 56  1  0
  1 57  1  0
 23  2  1  0
 32 27  1  0
 46 40  1  0
 14  5  1  0
 46 23  1  0
 14  9  1  0
M  END
>  <cnnaffinities>  (54) 
[6.84826, 6.83156]

>  <score>  (54) 
6.84826

>  <index>  (54) 
56

>  <Smiles>  (54) 
C([C@]1(C(N(c2c(nc(c3c(c(c(c(c23)[H])[H])[H])[H])[H])[H])C(=O)[C@]21C(N(C(c1nc(c(c(n1)[H])[H])[H])([H])[H])C(=O)c1c(c(c(F)c(c21)[H])[H])[H])([H])[H])([H])[H])[H])([H])([H])[H]

>  <h>  (54) 
<NA>

>  <Training>  (54) 
True

>  <Success>  (54) 
True

>  <enamine_searched>  (54) 
False

>  <enamine_id>  (54) 
nan

$$$$

     RDKit          3D

 59 63  0  0  0  0  0  0  0  0999 V2000
  -14.4929   -1.2255  -23.5311 C   0  0  0  0  0  0  0  0  0  0  0  0
  -13.6987   -2.3661  -23.0952 N   0  0  0  0  0  0  0  0  0  0  0  0
  -13.4633   -2.6156  -21.7738 C   0  0  0  0  0  0  0  0  0  0  0  0
  -14.0336   -2.0093  -20.8842 O   0  0  0  0  0  0  0  0  0  0  0  0
  -12.4881   -3.7721  -21.4789 C   0  0  0  0  0  0  0  0  0  0  0  0
  -11.1533   -3.7094  -22.0895 N   0  0  0  0  0  0  0  0  0  0  0  0
   -9.9793   -3.2185  -21.3791 C   0  0  0  0  0  0  0  0  0  0  0  0
   -8.7745   -2.9099  -22.3162 C   0  0  2  0  0  0  0  0  0  0  0  0
   -7.5575   -2.6415  -21.4409 C   0  0  0  0  0  0  0  0  0  0  0  0
   -6.7832   -3.4672  -20.9928 O   0  0  0  0  0  0  0  0  0  0  0  0
   -7.4289   -1.2871  -21.2570 N   0  0  0  0  0  0  0  0  0  0  0  0
   -6.6273   -0.7921  -20.2002 C   0  0  0  0  0  0  0  0  0  0  0  0
   -6.9206   -1.0797  -18.8891 C   0  0  0  0  0  0  0  0  0  0  0  0
   -6.2414   -0.5739  -17.8267 N   0  0  0  0  0  0  0  0  0  0  0  0
   -5.2268    0.2161  -18.0831 C   0  0  0  0  0  0  0  0  0  0  0  0
   -4.7825    0.5424  -19.3958 C   0  0  0  0  0  0  0  0  0  0  0  0
   -3.6432    1.3566  -19.6240 C   0  0  0  0  0  0  0  0  0  0  0  0
   -3.2268    1.6158  -20.9000 C   0  0  0  0  0  0  0  0  0  0  0  0
   -3.9185    1.0728  -22.0068 C   0  0  0  0  0  0  0  0  0  0  0  0
   -5.0299    0.2879  -21.8124 C   0  0  0  0  0  0  0  0  0  0  0  0
   -5.4922    0.0187  -20.4968 C   0  0  0  0  0  0  0  0  0  0  0  0
   -5.5488   -0.1432  -22.6621 H   0  0  0  0  0  0  0  0  0  0  0  0
   -3.5691    1.2736  -23.0147 H   0  0  0  0  0  0  0  0  0  0  0  0
   -2.3550    2.2401  -21.0762 H   0  0  0  0  0  0  0  0  0  0  0  0
   -3.1164    1.7609  -18.7638 H   0  0  0  0  0  0  0  0  0  0  0  0
   -4.6830    0.6264  -17.2307 H   0  0  0  0  0  0  0  0  0  0  0  0
   -7.7472   -1.7449  -18.6478 H   0  0  0  0  0  0  0  0  0  0  0  0
   -8.4491   -0.5246  -21.9641 C   0  0  0  0  0  0  0  0  0  0  0  0
   -8.9692   -1.5084  -23.0474 C   0  0  0  0  0  0  0  0  0  0  0  0
  -10.4104   -1.2161  -23.4622 C   0  0  0  0  0  0  0  0  0  0  0  0
  -11.1213   -1.4211  -22.6704 H   0  0  0  0  0  0  0  0  0  0  0  0
  -10.6905   -1.8348  -24.3187 H   0  0  0  0  0  0  0  0  0  0  0  0
  -10.5335   -0.1756  -23.7608 H   0  0  0  0  0  0  0  0  0  0  0  0
   -8.1280   -1.4132  -24.3307 C   0  0  0  0  0  0  0  0  0  0  0  0
   -8.4884   -2.1500  -25.0580 H   0  0  0  0  0  0  0  0  0  0  0  0
   -8.2335   -0.4196  -24.7817 H   0  0  0  0  0  0  0  0  0  0  0  0
   -7.0658   -1.6177  -24.1611 H   0  0  0  0  0  0  0  0  0  0  0  0
   -8.0320    0.3927  -22.3898 H   0  0  0  0  0  0  0  0  0  0  0  0
   -9.2552   -0.2332  -21.2769 H   0  0  0  0  0  0  0  0  0  0  0  0
   -8.5256   -4.0972  -23.2109 C   0  0  0  0  0  0  0  0  0  0  0  0
   -7.2543   -4.4563  -23.6857 C   0  0  0  0  0  0  0  0  0  0  0  0
   -7.1268   -5.4532  -24.6374 C   0  0  0  0  0  0  0  0  0  0  0  0
   -5.5443   -5.8714  -25.2429 Cl  0  0  0  0  0  0  0  0  0  0  0  0
   -8.2383   -6.1318  -25.1386 C   0  0  0  0  0  0  0  0  0  0  0  0
   -9.4873   -5.7904  -24.6623 C   0  0  0  0  0  0  0  0  0  0  0  0
   -9.6210   -4.8003  -23.6905 C   0  0  0  0  0  0  0  0  0  0  0  0
  -10.9849   -4.5192  -23.1748 C   0  0  0  0  0  0  0  0  0  0  0  0
  -11.9494   -5.0349  -23.7063 O   0  0  0  0  0  0  0  0  0  0  0  0
  -10.3897   -6.2669  -25.0334 H   0  0  0  0  0  0  0  0  0  0  0  0
   -8.1232   -6.9153  -25.8782 H   0  0  0  0  0  0  0  0  0  0  0  0
   -6.3663   -3.9664  -23.3093 H   0  0  0  0  0  0  0  0  0  0  0  0
  -10.2273   -2.3069  -20.8296 H   0  0  0  0  0  0  0  0  0  0  0  0
   -9.6743   -3.9690  -20.6551 H   0  0  0  0  0  0  0  0  0  0  0  0
  -12.4504   -3.9569  -20.4036 H   0  0  0  0  0  0  0  0  0  0  0  0
  -12.9664   -4.6390  -21.9377 H   0  0  0  0  0  0  0  0  0  0  0  0
  -13.2706   -2.9487  -23.8009 H   0  0  0  0  0  0  0  0  0  0  0  0
  -13.8933   -0.3041  -23.5936 H   0  0  0  0  0  0  0  0  0  0  0  0
  -14.9126   -1.4531  -24.5173 H   0  0  0  0  0  0  0  0  0  0  0  0
  -15.3081   -1.0370  -22.8247 H   0  0  0  0  0  0  0  0  0  0  0  0
  1  2  1  0
  2  3  1  0
  3  4  2  0
  3  5  1  0
  5  6  1  0
  6  7  1  0
  8  7  1  1
  8  9  1  0
  9 10  2  0
  9 11  1  0
 11 12  1  0
 12 13  2  0
 13 14  1  0
 14 15  2  0
 15 16  1  0
 16 17  2  0
 17 18  1  0
 18 19  2  0
 19 20  1  0
 20 21  2  0
 20 22  1  0
 19 23  1  0
 18 24  1  0
 17 25  1  0
 15 26  1  0
 13 27  1  0
 11 28  1  0
 28 29  1  0
 29 30  1  0
 30 31  1  0
 30 32  1  0
 30 33  1  0
 29 34  1  0
 34 35  1  0
 34 36  1  0
 34 37  1  0
 28 38  1  0
 28 39  1  0
  8 40  1  0
 40 41  2  0
 41 42  1  0
 42 43  1  0
 42 44  2  0
 44 45  1  0
 45 46  2  0
 46 47  1  0
 47 48  2  0
 45 49  1  0
 44 50  1  0
 41 51  1  0
  7 52  1  0
  7 53  1  0
  5 54  1  0
  5 55  1  0
  2 56  1  0
  1 57  1  0
  1 58  1  0
  1 59  1  0
 47  6  1  0
 29  8  1  0
 46 40  1  0
 21 12  1  0
 21 16  1  0
M  END
>  <cnnaffinities>  (55) 
[6.59549]

>  <score>  (55) 
6.59549

>  <index>  (55) 
57

>  <Smiles>  (55) 
C(N(C(=O)C(N1C([C@@]2(C(=O)N(c3c(nc(c4c(c(c(c(c34)[H])[H])[H])[H])[H])[H])C(C2(C([H])([H])[H])C([H])([H])[H])([H])[H])c2c(c(Cl)c(c(c2C1=O)[H])[H])[H])([H])[H])([H])[H])[H])([H])([H])[H]

>  <h>  (55) 
<NA>

>  <Training>  (55) 
True

>  <Success>  (55) 
True

>  <enamine_searched>  (55) 
False

>  <enamine_id>  (55) 
nan

$$$$

     RDKit          3D

 42 45  0  0  0  0  0  0  0  0999 V2000
  -10.7697   -3.7024  -21.7139 C   0  0  0  0  0  0  0  0  0  0  0  0
   -9.7782   -3.2494  -22.6752 N   0  0  0  0  0  0  0  0  0  0  0  0
   -9.9720   -2.0302  -23.4409 C   0  0  0  0  0  0  0  0  0  0  0  0
   -8.6396   -1.2569  -23.5387 C   0  0  1  0  0  0  0  0  0  0  0  0
   -8.1950   -0.6381  -22.1845 C   0  0  0  0  0  0  0  0  0  0  0  0
   -8.5248    0.4892  -21.8778 O   0  0  0  0  0  0  0  0  0  0  0  0
   -7.4060   -1.4089  -21.3515 N   0  0  0  0  0  0  0  0  0  0  0  0
   -6.6557   -0.8468  -20.2780 C   0  0  0  0  0  0  0  0  0  0  0  0
   -6.9912   -1.1023  -18.9736 C   0  0  0  0  0  0  0  0  0  0  0  0
   -6.3400   -0.5958  -17.8923 N   0  0  0  0  0  0  0  0  0  0  0  0
   -5.3086    0.1834  -18.1146 C   0  0  0  0  0  0  0  0  0  0  0  0
   -4.8261    0.5034  -19.4134 C   0  0  0  0  0  0  0  0  0  0  0  0
   -3.6873    1.3300  -19.6048 C   0  0  0  0  0  0  0  0  0  0  0  0
   -3.2185    1.5805  -20.8656 C   0  0  0  0  0  0  0  0  0  0  0  0
   -3.8636    1.0093  -21.9876 C   0  0  0  0  0  0  0  0  0  0  0  0
   -4.9720    0.2165  -21.8293 C   0  0  0  0  0  0  0  0  0  0  0  0
   -5.5007   -0.0380  -20.5319 C   0  0  0  0  0  0  0  0  0  0  0  0
   -5.4466   -0.2438  -22.6926 H   0  0  0  0  0  0  0  0  0  0  0  0
   -3.4723    1.1995  -22.9829 H   0  0  0  0  0  0  0  0  0  0  0  0
   -2.3505    2.2174  -21.0134 H   0  0  0  0  0  0  0  0  0  0  0  0
   -3.2041    1.7507  -18.7260 H   0  0  0  0  0  0  0  0  0  0  0  0
   -4.7800    0.5880  -17.2483 H   0  0  0  0  0  0  0  0  0  0  0  0
   -7.8454   -1.7368  -18.7370 H   0  0  0  0  0  0  0  0  0  0  0  0
   -7.3964   -2.4148  -21.4452 H   0  0  0  0  0  0  0  0  0  0  0  0
   -7.6576   -2.1906  -24.1923 C   0  0  0  0  0  0  0  0  0  0  0  0
   -6.6964   -1.7047  -25.0809 C   0  0  0  0  0  0  0  0  0  0  0  0
   -5.8561   -2.5936  -25.7348 C   0  0  0  0  0  0  0  0  0  0  0  0
   -4.6702   -1.9991  -26.8671 Cl  0  0  0  0  0  0  0  0  0  0  0  0
   -5.9509   -3.9647  -25.5182 C   0  0  0  0  0  0  0  0  0  0  0  0
   -6.8934   -4.4419  -24.6204 C   0  0  0  0  0  0  0  0  0  0  0  0
   -7.7434   -3.5619  -23.9509 C   0  0  0  0  0  0  0  0  0  0  0  0
   -8.7402   -4.0964  -22.9631 C   0  0  0  0  0  0  0  0  0  0  0  0
   -8.6262   -5.2032  -22.4489 O   0  0  0  0  0  0  0  0  0  0  0  0
   -6.9881   -5.5048  -24.4352 H   0  0  0  0  0  0  0  0  0  0  0  0
   -5.2995   -4.6455  -26.0561 H   0  0  0  0  0  0  0  0  0  0  0  0
   -6.6061   -0.6432  -25.2883 H   0  0  0  0  0  0  0  0  0  0  0  0
   -8.7819   -0.3765  -24.1734 H   0  0  0  0  0  0  0  0  0  0  0  0
  -10.7393   -1.4176  -22.9614 H   0  0  0  0  0  0  0  0  0  0  0  0
  -10.3471   -2.2621  -24.4544 H   0  0  0  0  0  0  0  0  0  0  0  0
  -11.4163   -4.4865  -22.1322 H   0  0  0  0  0  0  0  0  0  0  0  0
  -10.2296   -4.1231  -20.8618 H   0  0  0  0  0  0  0  0  0  0  0  0
  -11.3837   -2.8546  -21.3843 H   0  0  0  0  0  0  0  0  0  0  0  0
  1  2  1  0
  2  3  1  0
  3  4  1  0
  4  5  1  0
  5  6  2  0
  5  7  1  0
  7  8  1  0
  8  9  2  0
  9 10  1  0
 10 11  2  0
 11 12  1  0
 12 13  2  0
 13 14  1  0
 14 15  2  0
 15 16  1  0
 16 17  2  0
 16 18  1  0
 15 19  1  0
 14 20  1  0
 13 21  1  0
 11 22  1  0
  9 23  1  0
  7 24  1  0
  4 25  1  0
 25 26  2  0
 26 27  1  0
 27 28  1  0
 27 29  2  0
 29 30  1  0
 30 31  2  0
 31 32  1  0
 32 33  2  0
 30 34  1  0
 29 35  1  0
 26 36  1  0
  4 37  1  6
  3 38  1  0
  3 39  1  0
  1 40  1  0
  1 41  1  0
  1 42  1  0
 32  2  1  0
 17  8  1  0
 31 25  1  0
 17 12  1  0
M  END
>  <cnnaffinities>  (56) 
[5.7903]

>  <score>  (56) 
5.7903

>  <index>  (56) 
58

>  <Smiles>  (56) 
C(N1C([C@@](C(=O)N(c2c(nc(c3c(c(c(c(c23)[H])[H])[H])[H])[H])[H])[H])(c2c(c(Cl)c(c(c2C1=O)[H])[H])[H])[H])([H])[H])([H])([H])[H]

>  <h>  (56) 
<NA>

>  <Training>  (56) 
True

>  <Success>  (56) 
True

>  <enamine_searched>  (56) 
False

>  <enamine_id>  (56) 
nan

$$$$

     RDKit          3D

 60 65  0  0  0  0  0  0  0  0999 V2000
   -9.7733    1.1629  -29.2402 C   0  0  0  0  0  0  0  0  0  0  0  0
   -9.6079    1.4346  -27.8304 N   0  0  0  0  0  0  0  0  0  0  0  0
   -8.5848    0.8411  -27.1564 C   0  0  0  0  0  0  0  0  0  0  0  0
   -7.6970    0.1918  -27.6870 O   0  0  0  0  0  0  0  0  0  0  0  0
   -8.6474    1.0606  -25.6430 C   0  0  0  0  0  0  0  0  0  0  0  0
   -9.3196   -0.0416  -24.9866 N   0  0  0  0  0  0  0  0  0  0  0  0
   -8.5697   -1.2175  -24.5854 C   0  0  0  0  0  0  0  0  0  0  0  0
   -8.9749   -1.6792  -23.1582 C   0  0  2  0  0  0  0  0  0  0  0  0
   -8.3063   -0.6967  -22.1542 C   0  0  0  0  0  0  0  0  0  0  0  0
   -8.4642    0.5039  -22.1238 O   0  0  0  0  0  0  0  0  0  0  0  0
   -7.4266   -1.4007  -21.3486 N   0  0  0  0  0  0  0  0  0  0  0  0
   -6.6608   -0.8217  -20.2995 C   0  0  0  0  0  0  0  0  0  0  0  0
   -6.9783   -1.0973  -18.9920 C   0  0  0  0  0  0  0  0  0  0  0  0
   -6.3207   -0.6099  -17.9102 N   0  0  0  0  0  0  0  0  0  0  0  0
   -5.2883    0.1686  -18.1289 C   0  0  0  0  0  0  0  0  0  0  0  0
   -4.8155    0.5051  -19.4294 C   0  0  0  0  0  0  0  0  0  0  0  0
   -3.6720    1.3303  -19.6100 C   0  0  0  0  0  0  0  0  0  0  0  0
   -3.2036    1.5977  -20.8678 C   0  0  0  0  0  0  0  0  0  0  0  0
   -3.8527    1.0488  -21.9962 C   0  0  0  0  0  0  0  0  0  0  0  0
   -4.9697    0.2607  -21.8479 C   0  0  0  0  0  0  0  0  0  0  0  0
   -5.4972   -0.0163  -20.5561 C   0  0  0  0  0  0  0  0  0  0  0  0
   -5.4477   -0.1735  -22.7209 H   0  0  0  0  0  0  0  0  0  0  0  0
   -3.4653    1.2525  -22.9905 H   0  0  0  0  0  0  0  0  0  0  0  0
   -2.3307    2.2317  -21.0084 H   0  0  0  0  0  0  0  0  0  0  0  0
   -3.1814    1.7383  -18.7292 H   0  0  0  0  0  0  0  0  0  0  0  0
   -4.7578    0.5639  -17.2595 H   0  0  0  0  0  0  0  0  0  0  0  0
   -7.8264   -1.7421  -18.7632 H   0  0  0  0  0  0  0  0  0  0  0  0
   -7.6496   -2.8266  -21.4178 C   0  0  0  0  0  0  0  0  0  0  0  0
   -8.3467   -3.0479  -22.7712 C   0  0  2  0  0  0  0  0  0  0  0  0
   -7.4025   -3.7179  -23.7958 C   0  0  0  0  0  0  0  0  0  0  0  0
   -7.0915   -5.0947  -23.3068 C   0  0  0  0  0  0  0  0  0  0  0  0
   -5.9120   -5.5225  -22.8869 N   0  0  0  0  0  0  0  0  0  0  0  0
   -6.1373   -6.7655  -22.4627 N   0  0  0  0  0  0  0  0  0  0  0  0
   -7.4011   -7.0608  -22.6239 N   0  0  0  0  0  2  0  0  0  0  0  0
   -8.0328   -6.0189  -23.1519 N   0  0  0  0  0  0  0  0  0  0  0  0
   -6.4764   -3.1557  -23.9389 H   0  0  0  0  0  0  0  0  0  0  0  0
   -7.9081   -3.8307  -24.7576 H   0  0  0  0  0  0  0  0  0  0  0  0
   -9.1364   -3.7941  -22.6498 H   0  0  0  0  0  0  0  0  0  0  0  0
   -8.3088   -3.1470  -20.6012 H   0  0  0  0  0  0  0  0  0  0  0  0
   -6.7089   -3.3803  -21.3332 H   0  0  0  0  0  0  0  0  0  0  0  0
  -10.5111   -1.6803  -23.0752 C   0  0  0  0  0  0  0  0  0  0  0  0
  -11.1828   -2.4154  -22.0854 C   0  0  0  0  0  0  0  0  0  0  0  0
  -12.5659   -2.4410  -22.0442 C   0  0  0  0  0  0  0  0  0  0  0  0
  -13.3686   -3.3372  -20.7874 Cl  0  0  0  0  0  0  0  0  0  0  0  0
  -13.3448   -1.7395  -22.9631 C   0  0  0  0  0  0  0  0  0  0  0  0
  -12.7003   -0.9633  -23.9039 C   0  0  0  0  0  0  0  0  0  0  0  0
  -11.3079   -0.9522  -23.9743 C   0  0  0  0  0  0  0  0  0  0  0  0
  -10.6782   -0.0484  -24.9750 C   0  0  0  0  0  0  0  0  0  0  0  0
  -11.3440    0.7044  -25.6964 O   0  0  0  0  0  0  0  0  0  0  0  0
  -13.2689   -0.3319  -24.5815 H   0  0  0  0  0  0  0  0  0  0  0  0
  -14.4264   -1.7668  -22.8984 H   0  0  0  0  0  0  0  0  0  0  0  0
  -10.6263   -2.9747  -21.3390 H   0  0  0  0  0  0  0  0  0  0  0  0
   -7.5009   -0.9838  -24.6203 H   0  0  0  0  0  0  0  0  0  0  0  0
   -8.7417   -2.0311  -25.3005 H   0  0  0  0  0  0  0  0  0  0  0  0
   -9.1950    1.9797  -25.4121 H   0  0  0  0  0  0  0  0  0  0  0  0
   -7.6400    1.1488  -25.2223 H   0  0  0  0  0  0  0  0  0  0  0  0
  -10.4506    1.5717  -27.2816 H   0  0  0  0  0  0  0  0  0  0  0  0
  -10.5618    1.8090  -29.6302 H   0  0  0  0  0  0  0  0  0  0  0  0
  -10.0299    0.1137  -29.4270 H   0  0  0  0  0  0  0  0  0  0  0  0
   -8.8462    1.3849  -29.7721 H   0  0  0  0  0  0  0  0  0  0  0  0
  1  2  1  0
  2  3  1  0
  3  4  2  0
  3  5  1  0
  5  6  1  0
  6  7  1  0
  8  7  1  6
  8  9  1  0
  9 10  2  0
  9 11  1  0
 11 12  1  0
 12 13  2  0
 13 14  1  0
 14 15  2  0
 15 16  1  0
 16 17  2  0
 17 18  1  0
 18 19  2  0
 19 20  1  0
 20 21  2  0
 20 22  1  0
 19 23  1  0
 18 24  1  0
 17 25  1  0
 15 26  1  0
 13 27  1  0
 11 28  1  0
 28 29  1  0
 29 30  1  0
 30 31  1  0
 31 32  1  0
 32 33  2  0
 33 34  1  0
 34 35  1  0
 30 36  1  0
 30 37  1  0
 29 38  1  1
 28 39  1  0
 28 40  1  0
  8 41  1  0
 41 42  2  0
 42 43  1  0
 43 44  1  0
 43 45  2  0
 45 46  1  0
 46 47  2  0
 47 48  1  0
 48 49  2  0
 46 50  1  0
 45 51  1  0
 42 52  1  0
  7 53  1  0
  7 54  1  0
  5 55  1  0
  5 56  1  0
  2 57  1  0
  1 58  1  0
  1 59  1  0
  1 60  1  0
 48  6  1  0
 29  8  1  0
 35 31  2  0
 47 41  1  0
 21 12  1  0
 21 16  1  0
M  CHG  1  34  -1
M  END
>  <cnnaffinities>  (57) 
[7.03516, 7.35378]

>  <score>  (57) 
7.03516

>  <index>  (57) 
59

>  <Smiles>  (57) 
C(N(C(=O)C(N1C([C@@]2(C(=O)N(c3c(nc(c4c(c(c(c(c34)[H])[H])[H])[H])[H])[H])C([C@@]2(C(c2nn[n-]n2)([H])[H])[H])([H])[H])c2c(c(Cl)c(c(c2C1=O)[H])[H])[H])([H])[H])([H])[H])[H])([H])([H])[H]

>  <h>  (57) 
<NA>

>  <Training>  (57) 
True

>  <Success>  (57) 
True

>  <enamine_searched>  (57) 
False

>  <enamine_id>  (57) 
nan

$$$$

     RDKit          3D

 62 67  0  0  0  0  0  0  0  0999 V2000
   -4.6103    1.6797  -27.3609 C   0  0  0  0  0  0  0  0  0  0  0  0
   -4.6449    1.2674  -25.8920 C   0  0  0  0  0  0  0  0  0  0  0  0
   -5.6977    1.9161  -25.1300 N   0  0  0  0  0  0  0  0  0  0  0  0
   -5.3864    3.0018  -24.4044 N   0  0  0  0  0  0  0  0  0  0  0  0
   -6.5378    3.4078  -23.8842 C   0  0  0  0  0  0  0  0  0  0  0  0
   -7.6077    2.5778  -24.2822 C   0  0  0  0  0  0  0  0  0  0  0  0
   -7.0241    1.6234  -25.0891 C   0  0  0  0  0  0  0  0  0  0  0  0
   -7.6281    0.4621  -25.8291 C   0  0  0  0  0  0  0  0  0  0  0  0
   -8.6296   -0.2292  -25.0360 N   0  0  0  0  0  0  0  0  0  0  0  0
   -8.2892   -1.4633  -24.3592 C   0  0  0  0  0  0  0  0  0  0  0  0
   -9.0254   -1.6170  -23.0046 C   0  0  2  0  0  0  0  0  0  0  0  0
   -8.4288   -0.6282  -21.9645 C   0  0  0  0  0  0  0  0  0  0  0  0
   -8.6976    0.5413  -21.7812 O   0  0  0  0  0  0  0  0  0  0  0  0
   -7.4596   -1.3148  -21.2671 N   0  0  0  0  0  0  0  0  0  0  0  0
   -6.6877   -0.7370  -20.2357 C   0  0  0  0  0  0  0  0  0  0  0  0
   -6.9981   -1.0147  -18.9272 C   0  0  0  0  0  0  0  0  0  0  0  0
   -6.3143   -0.5465  -17.8568 N   0  0  0  0  0  0  0  0  0  0  0  0
   -5.2704    0.2077  -18.1092 C   0  0  0  0  0  0  0  0  0  0  0  0
   -4.8176    0.5440  -19.4164 C   0  0  0  0  0  0  0  0  0  0  0  0
   -3.6568    1.3349  -19.6183 C   0  0  0  0  0  0  0  0  0  0  0  0
   -3.1979    1.5853  -20.8812 C   0  0  0  0  0  0  0  0  0  0  0  0
   -3.8784    1.0569  -22.0027 C   0  0  0  0  0  0  0  0  0  0  0  0
   -5.0180    0.3093  -21.8350 C   0  0  0  0  0  0  0  0  0  0  0  0
   -5.5246    0.0424  -20.5314 C   0  0  0  0  0  0  0  0  0  0  0  0
   -5.5195   -0.1123  -22.7011 H   0  0  0  0  0  0  0  0  0  0  0  0
   -3.4947    1.2418  -23.0041 H   0  0  0  0  0  0  0  0  0  0  0  0
   -2.3064    2.1880  -21.0277 H   0  0  0  0  0  0  0  0  0  0  0  0
   -3.1455    1.7181  -18.7399 H   0  0  0  0  0  0  0  0  0  0  0  0
   -4.7085    0.5747  -17.2522 H   0  0  0  0  0  0  0  0  0  0  0  0
   -7.8566   -1.6496  -18.7075 H   0  0  0  0  0  0  0  0  0  0  0  0
   -7.3675   -2.7236  -21.5822 C   0  0  0  0  0  0  0  0  0  0  0  0
   -8.6696   -2.9867  -22.3528 C   0  0  2  0  0  0  0  0  0  0  0  0
   -8.6241   -4.2083  -23.2741 C   0  0  0  0  0  0  0  0  0  0  0  0
   -7.7682   -4.1769  -23.9603 H   0  0  0  0  0  0  0  0  0  0  0  0
   -8.5415   -5.1336  -22.6913 H   0  0  0  0  0  0  0  0  0  0  0  0
   -9.5332   -4.2817  -23.8834 H   0  0  0  0  0  0  0  0  0  0  0  0
   -9.4342   -3.1727  -21.5931 H   0  0  0  0  0  0  0  0  0  0  0  0
   -6.4660   -2.9399  -22.1798 H   0  0  0  0  0  0  0  0  0  0  0  0
   -7.2881   -3.2997  -20.6546 H   0  0  0  0  0  0  0  0  0  0  0  0
  -10.5050   -1.4146  -23.2679 C   0  0  0  0  0  0  0  0  0  0  0  0
  -11.5001   -2.0039  -22.4697 C   0  0  0  0  0  0  0  0  0  0  0  0
  -12.8276   -1.7141  -22.7061 C   0  0  0  0  0  0  0  0  0  0  0  0
  -13.7611   -2.1948  -21.8658 F   0  0  0  0  0  0  0  0  0  0  0  0
  -13.2453   -0.9412  -23.7819 C   0  0  0  0  0  0  0  0  0  0  0  0
  -12.2766   -0.3593  -24.5720 C   0  0  0  0  0  0  0  0  0  0  0  0
  -10.9242   -0.5755  -24.3103 C   0  0  0  0  0  0  0  0  0  0  0  0
   -9.9340    0.1512  -25.1727 C   0  0  0  0  0  0  0  0  0  0  0  0
  -10.2656    1.0393  -25.9433 O   0  0  0  0  0  0  0  0  0  0  0  0
  -12.5315    0.2863  -25.4059 H   0  0  0  0  0  0  0  0  0  0  0  0
  -14.3036   -0.7923  -23.9398 H   0  0  0  0  0  0  0  0  0  0  0  0
  -11.2940   -2.7170  -21.6821 H   0  0  0  0  0  0  0  0  0  0  0  0
   -8.5855   -2.3098  -24.9922 H   0  0  0  0  0  0  0  0  0  0  0  0
   -7.2062   -1.5073  -24.2014 H   0  0  0  0  0  0  0  0  0  0  0  0
   -6.8485   -0.2436  -26.1531 H   0  0  0  0  0  0  0  0  0  0  0  0
   -8.1274    0.8241  -26.7338 H   0  0  0  0  0  0  0  0  0  0  0  0
   -8.6530    2.6658  -24.0065 H   0  0  0  0  0  0  0  0  0  0  0  0
   -6.5508    4.2892  -23.2549 H   0  0  0  0  0  0  0  0  0  0  0  0
   -4.7343    0.1784  -25.7879 H   0  0  0  0  0  0  0  0  0  0  0  0
   -3.7229    1.5704  -25.3906 H   0  0  0  0  0  0  0  0  0  0  0  0
   -4.4966    2.7643  -27.4482 H   0  0  0  0  0  0  0  0  0  0  0  0
   -3.7567    1.2016  -27.8522 H   0  0  0  0  0  0  0  0  0  0  0  0
   -5.5224    1.3849  -27.8940 H   0  0  0  0  0  0  0  0  0  0  0  0
  1  2  1  0
  2  3  1  0
  3  4  1  0
  4  5  2  0
  5  6  1  0
  6  7  2  0
  7  8  1  0
  8  9  1  0
  9 10  1  0
 11 10  1  6
 11 12  1  0
 12 13  2  0
 12 14  1  0
 14 15  1  0
 15 16  2  0
 16 17  1  0
 17 18  2  0
 18 19  1  0
 19 20  2  0
 20 21  1  0
 21 22  2  0
 22 23  1  0
 23 24  2  0
 23 25  1  0
 22 26  1  0
 21 27  1  0
 20 28  1  0
 18 29  1  0
 16 30  1  0
 14 31  1  0
 31 32  1  0
 32 33  1  0
 33 34  1  0
 33 35  1  0
 33 36  1  0
 32 37  1  1
 31 38  1  0
 31 39  1  0
 11 40  1  0
 40 41  2  0
 41 42  1  0
 42 43  1  0
 42 44  2  0
 44 45  1  0
 45 46  2  0
 46 47  1  0
 47 48  2  0
 45 49  1  0
 44 50  1  0
 41 51  1  0
 10 52  1  0
 10 53  1  0
  8 54  1  0
  8 55  1  0
  6 56  1  0
  5 57  1  0
  2 58  1  0
  2 59  1  0
  1 60  1  0
  1 61  1  0
  1 62  1  0
  7  3  1  0
 47  9  1  0
 32 11  1  0
 46 40  1  0
 24 15  1  0
 24 19  1  0
M  END
>  <cnnaffinities>  (58) 
[6.90306, 6.58399, 6.63948, 6.73156]

>  <score>  (58) 
6.90306

>  <index>  (58) 
60

>  <Smiles>  (58) 
C(C(n1nc(c(c1C(N1C([C@@]2(C(=O)N(c3c(nc(c4c(c(c(c(c34)[H])[H])[H])[H])[H])[H])C([C@@]2(C([H])([H])[H])[H])([H])[H])c2c(c(F)c(c(c2C1=O)[H])[H])[H])([H])[H])([H])[H])[H])[H])([H])[H])([H])([H])[H]

>  <h>  (58) 
<NA>

>  <Training>  (58) 
True

>  <Success>  (58) 
True

>  <enamine_searched>  (58) 
False

>  <enamine_id>  (58) 
nan

$$$$

     RDKit          3D

 44 47  0  0  0  0  0  0  0  0999 V2000
   -9.0474    0.2922  -21.0408 O   0  0  0  0  0  0  0  0  0  0  0  0
   -8.3238   -0.3057  -21.8103 C   0  0  0  0  0  0  0  0  0  0  0  0
   -7.4253   -1.4230  -21.2769 C   0  0  0  0  0  0  0  0  0  0  0  0
   -6.5651   -0.8420  -20.1739 C   0  0  0  0  0  0  0  0  0  0  0  0
   -6.8757   -1.0429  -18.8540 C   0  0  0  0  0  0  0  0  0  0  0  0
   -6.1908   -0.5364  -17.7922 N   0  0  0  0  0  0  0  0  0  0  0  0
   -5.1572    0.2240  -18.0633 C   0  0  0  0  0  0  0  0  0  0  0  0
   -4.7241    0.5357  -19.3799 C   0  0  0  0  0  0  0  0  0  0  0  0
   -3.6022    1.3693  -19.6223 C   0  0  0  0  0  0  0  0  0  0  0  0
   -3.2121    1.6636  -20.9005 C   0  0  0  0  0  0  0  0  0  0  0  0
   -3.9327    1.1290  -21.9934 C   0  0  0  0  0  0  0  0  0  0  0  0
   -5.0199    0.3169  -21.7848 C   0  0  0  0  0  0  0  0  0  0  0  0
   -5.4491   -0.0029  -20.4698 C   0  0  0  0  0  0  0  0  0  0  0  0
   -5.5488   -0.0913  -22.6385 H   0  0  0  0  0  0  0  0  0  0  0  0
   -3.6162    1.3627  -23.0055 H   0  0  0  0  0  0  0  0  0  0  0  0
   -2.3584    2.3096  -21.0847 H   0  0  0  0  0  0  0  0  0  0  0  0
   -3.0665    1.7788  -18.7697 H   0  0  0  0  0  0  0  0  0  0  0  0
   -4.6039    0.6291  -17.2141 H   0  0  0  0  0  0  0  0  0  0  0  0
   -7.7277   -1.6607  -18.5795 H   0  0  0  0  0  0  0  0  0  0  0  0
   -6.8201   -1.8648  -22.0767 H   0  0  0  0  0  0  0  0  0  0  0  0
   -8.0713   -2.1985  -20.8469 H   0  0  0  0  0  0  0  0  0  0  0  0
   -8.1973    0.0558  -23.1471 N   0  0  0  0  0  0  0  0  0  0  0  0
   -8.2927   -0.8805  -24.2568 C   0  0  0  0  0  0  0  0  0  0  0  0
   -7.2926   -0.5149  -25.3446 C   0  0  0  0  0  0  0  0  0  0  0  0
   -7.4458    0.9346  -25.7884 C   0  0  0  0  0  0  0  0  0  0  0  0
   -6.4894    1.3375  -26.9358 C   0  0  0  0  0  0  0  0  0  0  0  0
   -7.6898    1.5944  -27.8768 C   0  0  0  0  0  0  0  0  0  0  0  0
   -8.6526    1.1937  -26.7351 C   0  0  0  0  0  0  0  0  0  0  0  0
   -9.3302    1.9817  -26.3957 H   0  0  0  0  0  0  0  0  0  0  0  0
   -9.2695    0.3127  -26.9310 H   0  0  0  0  0  0  0  0  0  0  0  0
   -7.7294    0.9535  -28.7617 H   0  0  0  0  0  0  0  0  0  0  0  0
   -7.7899    2.6255  -28.2266 H   0  0  0  0  0  0  0  0  0  0  0  0
   -5.8679    2.2099  -26.7194 H   0  0  0  0  0  0  0  0  0  0  0  0
   -5.8086    0.5426  -27.2516 H   0  0  0  0  0  0  0  0  0  0  0  0
   -7.3907    1.8589  -24.5777 C   0  0  0  0  0  0  0  0  0  0  0  0
   -8.3964    1.4549  -23.5008 C   0  0  0  0  0  0  0  0  0  0  0  0
   -8.2573    2.0459  -22.5968 H   0  0  0  0  0  0  0  0  0  0  0  0
   -9.4223    1.6566  -23.8453 H   0  0  0  0  0  0  0  0  0  0  0  0
   -7.5768    2.8866  -24.9000 H   0  0  0  0  0  0  0  0  0  0  0  0
   -6.3771    1.8547  -24.1545 H   0  0  0  0  0  0  0  0  0  0  0  0
   -7.4205   -1.1751  -26.2070 H   0  0  0  0  0  0  0  0  0  0  0  0
   -6.2746   -0.6810  -24.9732 H   0  0  0  0  0  0  0  0  0  0  0  0
   -8.1193   -1.8848  -23.8782 H   0  0  0  0  0  0  0  0  0  0  0  0
   -9.3109   -0.8843  -24.6877 H   0  0  0  0  0  0  0  0  0  0  0  0
  1  2  2  0
  2  3  1  0
  3  4  1  0
  4  5  2  0
  5  6  1  0
  6  7  2  0
  7  8  1  0
  8  9  2  0
  9 10  1  0
 10 11  2  0
 11 12  1  0
 12 13  2  0
 12 14  1  0
 11 15  1  0
 10 16  1  0
  9 17  1  0
  7 18  1  0
  5 19  1  0
  3 20  1  0
  3 21  1  0
  2 22  1  0
 22 23  1  0
 23 24  1  0
 24 25  1  0
 25 26  1  0
 26 27  1  0
 27 28  1  0
 28 29  1  0
 28 30  1  0
 27 31  1  0
 27 32  1  0
 26 33  1  0
 26 34  1  0
 25 35  1  0
 35 36  1  0
 36 37  1  0
 36 38  1  0
 35 39  1  0
 35 40  1  0
 24 41  1  0
 24 42  1  0
 23 43  1  0
 23 44  1  0
 13  4  1  0
 36 22  1  0
 13  8  1  0
 28 25  1  0
M  END
>  <cnnaffinities>  (59) 
[5.19287, 5.1929, 5.19291, 5.1929, 5.38814, 5.38787, 5.38809, 5.3877, 5.34708, 5.34712, 5.34715, 5.3471, 5.21888]

>  <score>  (59) 
5.19287

>  <index>  (59) 
61

>  <Smiles>  (59) 
O=C(C(c1c(nc(c2c(c(c(c(c12)[H])[H])[H])[H])[H])[H])([H])[H])N1C(C(C2(C(C(C2([H])[H])([H])[H])([H])[H])C(C1([H])[H])([H])[H])([H])[H])([H])[H]

>  <h>  (59) 
<NA>

>  <Training>  (59) 
True

>  <Success>  (59) 
True

>  <enamine_searched>  (59) 
False

>  <enamine_id>  (59) 
nan

$$$$

     RDKit          3D

 44 47  0  0  0  0  0  0  0  0999 V2000
   -5.6168   -3.1951  -21.2554 O   0  0  0  0  0  0  0  0  0  0  0  0
   -6.7326   -2.8919  -21.6526 C   0  0  0  0  0  0  0  0  0  0  0  0
   -7.3742   -1.5560  -21.2646 C   0  0  0  0  0  0  0  0  0  0  0  0
   -6.5937   -0.8728  -20.1876 C   0  0  0  0  0  0  0  0  0  0  0  0
   -6.9230   -1.0803  -18.8757 C   0  0  0  0  0  0  0  0  0  0  0  0
   -6.2665   -0.5625  -17.8064 N   0  0  0  0  0  0  0  0  0  0  0  0
   -5.2275    0.1978  -18.0651 C   0  0  0  0  0  0  0  0  0  0  0  0
   -4.7596    0.4873  -19.3772 C   0  0  0  0  0  0  0  0  0  0  0  0
   -3.6392    1.3278  -19.6076 C   0  0  0  0  0  0  0  0  0  0  0  0
   -3.2286    1.5978  -20.8865 C   0  0  0  0  0  0  0  0  0  0  0  0
   -3.9071    1.0285  -21.9866 C   0  0  0  0  0  0  0  0  0  0  0  0
   -4.9872    0.2028  -21.7898 C   0  0  0  0  0  0  0  0  0  0  0  0
   -5.4540   -0.0701  -20.4747 C   0  0  0  0  0  0  0  0  0  0  0  0
   -5.4827   -0.2471  -22.6438 H   0  0  0  0  0  0  0  0  0  0  0  0
   -3.5773    1.2588  -22.9967 H   0  0  0  0  0  0  0  0  0  0  0  0
   -2.3830    2.2572  -21.0611 H   0  0  0  0  0  0  0  0  0  0  0  0
   -3.1308    1.7620  -18.7505 H   0  0  0  0  0  0  0  0  0  0  0  0
   -4.7018    0.6225  -17.2085 H   0  0  0  0  0  0  0  0  0  0  0  0
   -7.7761   -1.7130  -18.6312 H   0  0  0  0  0  0  0  0  0  0  0  0
   -8.3871   -1.7636  -20.8943 H   0  0  0  0  0  0  0  0  0  0  0  0
   -7.4749   -0.9207  -22.1529 H   0  0  0  0  0  0  0  0  0  0  0  0
   -7.4760   -3.7384  -22.4332 N   0  0  0  0  0  0  0  0  0  0  0  0
   -7.1229   -5.1536  -22.3810 C   0  0  0  0  0  0  0  0  0  0  0  0
   -7.3233   -5.7988  -23.7416 C   0  0  0  0  0  0  0  0  0  0  0  0
   -8.7614   -5.5909  -24.2172 C   0  0  0  0  0  0  0  0  0  0  0  0
   -9.0471   -6.4214  -25.4556 C   0  0  0  0  0  0  0  0  0  0  0  0
  -10.4521   -6.6507  -25.9554 C   0  0  0  0  0  0  0  0  0  0  0  0
   -9.4672   -5.8824  -26.7864 C   0  0  0  0  0  0  0  0  0  0  0  0
   -9.6536   -4.8172  -26.8771 H   0  0  0  0  0  0  0  0  0  0  0  0
   -9.0334   -6.3643  -27.6543 H   0  0  0  0  0  0  0  0  0  0  0  0
  -10.7290   -7.6566  -26.2535 H   0  0  0  0  0  0  0  0  0  0  0  0
  -11.2604   -6.0871  -25.4924 H   0  0  0  0  0  0  0  0  0  0  0  0
   -8.4082   -7.3035  -25.5136 H   0  0  0  0  0  0  0  0  0  0  0  0
   -9.0657   -4.0907  -24.2821 C   0  0  0  0  0  0  0  0  0  0  0  0
   -8.8425   -3.4818  -22.8938 C   0  0  0  0  0  0  0  0  0  0  0  0
   -9.5605   -3.9324  -22.1817 H   0  0  0  0  0  0  0  0  0  0  0  0
   -9.0491   -2.4084  -22.9132 H   0  0  0  0  0  0  0  0  0  0  0  0
   -8.4298   -3.5907  -25.0282 H   0  0  0  0  0  0  0  0  0  0  0  0
  -10.1067   -3.9039  -24.5743 H   0  0  0  0  0  0  0  0  0  0  0  0
   -9.3973   -5.9888  -23.4153 H   0  0  0  0  0  0  0  0  0  0  0  0
   -7.1232   -6.8747  -23.6520 H   0  0  0  0  0  0  0  0  0  0  0  0
   -6.6163   -5.3778  -24.4723 H   0  0  0  0  0  0  0  0  0  0  0  0
   -6.0900   -5.2436  -22.0372 H   0  0  0  0  0  0  0  0  0  0  0  0
   -7.7702   -5.6437  -21.6308 H   0  0  0  0  0  0  0  0  0  0  0  0
  1  2  2  0
  2  3  1  0
  3  4  1  0
  4  5  2  0
  5  6  1  0
  6  7  2  0
  7  8  1  0
  8  9  2  0
  9 10  1  0
 10 11  2  0
 11 12  1  0
 12 13  2  0
 12 14  1  0
 11 15  1  0
 10 16  1  0
  9 17  1  0
  7 18  1  0
  5 19  1  0
  3 20  1  0
  3 21  1  0
  2 22  1  0
 22 23  1  0
 23 24  1  0
 24 25  1  0
 25 26  1  0
 26 27  1  0
 27 28  1  0
 28 29  1  0
 28 30  1  0
 27 31  1  0
 27 32  1  0
 26 33  1  0
 25 34  1  0
 34 35  1  0
 35 36  1  0
 35 37  1  0
 34 38  1  0
 34 39  1  0
 25 40  1  0
 24 41  1  0
 24 42  1  0
 23 43  1  0
 23 44  1  0
 13  4  1  0
 35 22  1  0
 13  8  1  0
 28 26  1  0
M  END
>  <cnnaffinities>  (60) 
[5.07568]

>  <score>  (60) 
5.07568

>  <index>  (60) 
62

>  <Smiles>  (60) 
O=C(C(c1c(nc(c2c(c(c(c(c12)[H])[H])[H])[H])[H])[H])([H])[H])N1C(C(C(C2(C(C2([H])[H])([H])[H])[H])(C(C1([H])[H])([H])[H])[H])([H])[H])([H])[H]

>  <h>  (60) 
<NA>

>  <Training>  (60) 
True

>  <Success>  (60) 
True

>  <enamine_searched>  (60) 
False

>  <enamine_id>  (60) 
nan

$$$$

     RDKit          3D

 57 61  0  0  0  0  0  0  0  0999 V2000
   -8.0393    4.5345  -24.3872 C   0  0  0  0  0  0  0  0  0  0  0  0
   -8.0475    3.3099  -25.1584 N   0  0  0  0  0  0  0  0  0  0  0  0
   -7.2936    2.2566  -24.7446 C   0  0  0  0  0  0  0  0  0  0  0  0
   -6.5234    2.3179  -23.7999 O   0  0  0  0  0  0  0  0  0  0  0  0
   -7.4712    0.9808  -25.5690 C   0  0  0  0  0  0  0  0  0  0  0  0
   -8.4396    0.0918  -24.9466 N   0  0  0  0  0  0  0  0  0  0  0  0
   -8.0273   -1.1959  -24.4073 C   0  0  0  0  0  0  0  0  0  0  0  0
   -8.8226   -1.5566  -23.1180 C   0  0  2  0  0  0  0  0  0  0  0  0
   -8.3626   -0.6562  -21.9419 C   0  0  0  0  0  0  0  0  0  0  0  0
   -8.7188    0.4713  -21.6765 O   0  0  0  0  0  0  0  0  0  0  0  0
   -7.4316   -1.3710  -21.2135 N   0  0  0  0  0  0  0  0  0  0  0  0
   -6.6395   -0.7974  -20.1923 C   0  0  0  0  0  0  0  0  0  0  0  0
   -6.9294   -1.0729  -18.8826 C   0  0  0  0  0  0  0  0  0  0  0  0
   -6.2439   -0.5834  -17.8204 N   0  0  0  0  0  0  0  0  0  0  0  0
   -5.2173    0.1904  -18.0836 C   0  0  0  0  0  0  0  0  0  0  0  0
   -4.7758    0.5146  -19.3963 C   0  0  0  0  0  0  0  0  0  0  0  0
   -3.6388    1.3333  -19.6193 C   0  0  0  0  0  0  0  0  0  0  0  0
   -3.2162    1.6072  -20.8871 C   0  0  0  0  0  0  0  0  0  0  0  0
   -3.9166    1.0823  -21.9997 C   0  0  0  0  0  0  0  0  0  0  0  0
   -5.0272    0.2975  -21.8123 C   0  0  0  0  0  0  0  0  0  0  0  0
   -5.4920   -0.0002  -20.5026 C   0  0  0  0  0  0  0  0  0  0  0  0
   -5.5662   -0.0781  -22.6810 H   0  0  0  0  0  0  0  0  0  0  0  0
   -3.5854    1.3187  -23.0057 H   0  0  0  0  0  0  0  0  0  0  0  0
   -2.3429    2.2319  -21.0513 H   0  0  0  0  0  0  0  0  0  0  0  0
   -3.1209    1.7329  -18.7497 H   0  0  0  0  0  0  0  0  0  0  0  0
   -4.6685    0.6001  -17.2351 H   0  0  0  0  0  0  0  0  0  0  0  0
   -7.7755   -1.7216  -18.6556 H   0  0  0  0  0  0  0  0  0  0  0  0
   -7.2171   -2.7269  -21.6671 C   0  0  0  0  0  0  0  0  0  0  0  0
   -8.4247   -2.9599  -22.5839 C   0  0  2  0  0  0  0  0  0  0  0  0
   -8.2065   -4.0315  -23.6469 C   0  0  0  0  0  0  0  0  0  0  0  0
   -8.1050   -5.3243  -23.0812 O   0  0  0  0  0  0  0  0  0  0  0  0
   -7.2606   -5.3661  -22.6148 H   0  0  0  0  0  0  0  0  0  0  0  0
   -9.0670   -4.0408  -24.3283 H   0  0  0  0  0  0  0  0  0  0  0  0
   -7.3051   -3.7928  -24.2377 H   0  0  0  0  0  0  0  0  0  0  0  0
   -9.2230   -3.3178  -21.9300 H   0  0  0  0  0  0  0  0  0  0  0  0
   -7.1980   -3.4126  -20.8142 H   0  0  0  0  0  0  0  0  0  0  0  0
   -6.2542   -2.8338  -22.1943 H   0  0  0  0  0  0  0  0  0  0  0  0
  -10.2979   -1.3762  -23.4215 C   0  0  0  0  0  0  0  0  0  0  0  0
  -11.2756   -2.0134  -22.6464 C   0  0  0  0  0  0  0  0  0  0  0  0
  -12.6156   -1.7378  -22.8441 C   0  0  0  0  0  0  0  0  0  0  0  0
  -13.7713   -2.4413  -21.7477 Cl  0  0  0  0  0  0  0  0  0  0  0  0
  -13.0487   -0.9170  -23.8874 C   0  0  0  0  0  0  0  0  0  0  0  0
  -12.0904   -0.3141  -24.6803 C   0  0  0  0  0  0  0  0  0  0  0  0
  -10.7315   -0.4884  -24.4168 C   0  0  0  0  0  0  0  0  0  0  0  0
   -9.7561    0.3721  -25.1577 C   0  0  0  0  0  0  0  0  0  0  0  0
  -10.1143    1.3056  -25.8767 O   0  0  0  0  0  0  0  0  0  0  0  0
  -12.3716    0.2840  -25.5395 H   0  0  0  0  0  0  0  0  0  0  0  0
  -14.1051   -0.7370  -24.0527 H   0  0  0  0  0  0  0  0  0  0  0  0
  -11.0241   -2.7333  -21.8781 H   0  0  0  0  0  0  0  0  0  0  0  0
   -8.1960   -1.9758  -25.1668 H   0  0  0  0  0  0  0  0  0  0  0  0
   -6.9516   -1.1442  -24.1926 H   0  0  0  0  0  0  0  0  0  0  0  0
   -6.5157    0.4601  -25.6501 H   0  0  0  0  0  0  0  0  0  0  0  0
   -7.8109    1.2397  -26.5749 H   0  0  0  0  0  0  0  0  0  0  0  0
   -8.8804    3.0676  -25.6794 H   0  0  0  0  0  0  0  0  0  0  0  0
   -8.4722    4.3845  -23.3913 H   0  0  0  0  0  0  0  0  0  0  0  0
   -8.6109    5.2887  -24.9303 H   0  0  0  0  0  0  0  0  0  0  0  0
   -7.0090    4.8807  -24.2691 H   0  0  0  0  0  0  0  0  0  0  0  0
  1  2  1  0
  2  3  1  0
  3  4  2  0
  3  5  1  0
  5  6  1  0
  6  7  1  0
  8  7  1  6
  8  9  1  0
  9 10  2  0
  9 11  1  0
 11 12  1  0
 12 13  2  0
 13 14  1  0
 14 15  2  0
 15 16  1  0
 16 17  2  0
 17 18  1  0
 18 19  2  0
 19 20  1  0
 20 21  2  0
 20 22  1  0
 19 23  1  0
 18 24  1  0
 17 25  1  0
 15 26  1  0
 13 27  1  0
 11 28  1  0
 28 29  1  0
 29 30  1  0
 30 31  1  0
 31 32  1  0
 30 33  1  0
 30 34  1  0
 29 35  1  1
 28 36  1  0
 28 37  1  0
  8 38  1  0
 38 39  2  0
 39 40  1  0
 40 41  1  0
 40 42  2  0
 42 43  1  0
 43 44  2  0
 44 45  1  0
 45 46  2  0
 43 47  1  0
 42 48  1  0
 39 49  1  0
  7 50  1  0
  7 51  1  0
  5 52  1  0
  5 53  1  0
  2 54  1  0
  1 55  1  0
  1 56  1  0
  1 57  1  0
 45  6  1  0
 29  8  1  0
 44 38  1  0
 21 12  1  0
 21 16  1  0
M  END
>  <cnnaffinities>  (61) 
[6.61959, 6.16856, 5.91835]

>  <score>  (61) 
6.61959

>  <index>  (61) 
63

>  <Smiles>  (61) 
C(N(C(=O)C(N1C([C@@]2(C(=O)N(c3c(nc(c4c(c(c(c(c34)[H])[H])[H])[H])[H])[H])C([C@@]2(C(O[H])([H])[H])[H])([H])[H])c2c(c(Cl)c(c(c2C1=O)[H])[H])[H])([H])[H])([H])[H])[H])([H])([H])[H]

>  <h>  (61) 
<NA>

>  <Training>  (61) 
True

>  <Success>  (61) 
True

>  <enamine_searched>  (61) 
False

>  <enamine_id>  (61) 
nan

$$$$

     RDKit          3D

 55 60  0  0  0  0  0  0  0  0999 V2000
  -10.2135   -1.0634  -23.6337 C   0  0  0  0  0  0  0  0  0  0  0  0
   -8.8441   -1.3691  -23.0394 C   0  0  1  0  0  0  0  0  0  0  0  0
   -8.3900   -0.4244  -21.9132 C   0  0  0  0  0  0  0  0  0  0  0  0
   -7.3931   -1.2174  -21.2152 N   0  0  0  0  0  0  0  0  0  0  0  0
   -6.5916   -0.7432  -20.1545 C   0  0  0  0  0  0  0  0  0  0  0  0
   -6.8849   -1.0478  -18.8513 C   0  0  0  0  0  0  0  0  0  0  0  0
   -6.2133   -0.5385  -17.7871 N   0  0  0  0  0  0  0  0  0  0  0  0
   -5.2013    0.2605  -18.0309 C   0  0  0  0  0  0  0  0  0  0  0  0
   -4.7492    0.5967  -19.3433 C   0  0  0  0  0  0  0  0  0  0  0  0
   -3.6111    1.4102  -19.5900 C   0  0  0  0  0  0  0  0  0  0  0  0
   -3.1944    1.6499  -20.8722 C   0  0  0  0  0  0  0  0  0  0  0  0
   -3.8869    1.0949  -21.9721 C   0  0  0  0  0  0  0  0  0  0  0  0
   -4.9985    0.3206  -21.7611 C   0  0  0  0  0  0  0  0  0  0  0  0
   -5.4573    0.0683  -20.4424 C   0  0  0  0  0  0  0  0  0  0  0  0
   -5.5210   -0.1325  -22.5963 H   0  0  0  0  0  0  0  0  0  0  0  0
   -3.5400    1.2753  -22.9865 H   0  0  0  0  0  0  0  0  0  0  0  0
   -2.3231    2.2712  -21.0628 H   0  0  0  0  0  0  0  0  0  0  0  0
   -3.0787    1.8368  -18.7443 H   0  0  0  0  0  0  0  0  0  0  0  0
   -4.6670    0.6580  -17.1654 H   0  0  0  0  0  0  0  0  0  0  0  0
   -7.7082   -1.7228  -18.6263 H   0  0  0  0  0  0  0  0  0  0  0  0
   -7.4873   -2.5659  -21.4688 C   0  0  0  0  0  0  0  0  0  0  0  0
   -6.7581   -3.3992  -20.9764 O   0  0  0  0  0  0  0  0  0  0  0  0
   -8.6784   -2.7943  -22.4089 C   0  0  1  0  0  0  0  0  0  0  0  0
   -9.8922   -3.1779  -21.5041 C   0  0  0  0  0  0  0  0  0  0  0  0
  -11.0471   -3.6559  -22.2536 N   0  0  0  0  0  0  0  0  0  0  0  0
  -12.4114   -3.5853  -21.7185 C   0  0  0  0  0  0  0  0  0  0  0  0
  -13.2946   -2.5033  -22.2806 C   0  0  0  0  0  0  0  0  0  0  0  0
  -14.1084   -1.7476  -21.4850 N   0  0  0  0  0  0  0  0  0  0  0  0
  -14.7054   -0.9464  -22.3508 C   0  0  0  0  0  0  0  0  0  0  0  0
  -14.2910   -1.2350  -23.5972 N   0  0  0  0  0  0  0  0  0  0  0  0
  -13.3730   -2.2280  -23.5676 N   0  0  0  0  0  0  0  0  0  0  0  0
  -14.5147   -0.7992  -24.4784 H   0  0  0  0  0  0  0  0  0  0  0  0
  -15.4048   -0.1446  -22.1375 H   0  0  0  0  0  0  0  0  0  0  0  0
  -12.8899   -4.5389  -21.9603 H   0  0  0  0  0  0  0  0  0  0  0  0
  -12.4229   -3.4489  -20.6389 H   0  0  0  0  0  0  0  0  0  0  0  0
  -10.8618   -4.5250  -23.2928 C   0  0  0  0  0  0  0  0  0  0  0  0
  -11.7884   -5.1498  -23.7712 O   0  0  0  0  0  0  0  0  0  0  0  0
   -9.4842   -4.6878  -23.8382 C   0  0  0  0  0  0  0  0  0  0  0  0
   -9.3100   -5.6749  -24.8047 C   0  0  0  0  0  0  0  0  0  0  0  0
   -8.0791   -5.8938  -25.3806 C   0  0  0  0  0  0  0  0  0  0  0  0
   -7.0239   -5.0918  -24.9677 C   0  0  0  0  0  0  0  0  0  0  0  0
   -5.8213   -5.3129  -25.5225 F   0  0  0  0  0  0  0  0  0  0  0  0
   -7.1641   -4.1136  -24.0004 C   0  0  0  0  0  0  0  0  0  0  0  0
   -8.4206   -3.8940  -23.4148 C   0  0  0  0  0  0  0  0  0  0  0  0
   -6.2927   -3.5347  -23.7205 H   0  0  0  0  0  0  0  0  0  0  0  0
   -7.9266   -6.6570  -26.1339 H   0  0  0  0  0  0  0  0  0  0  0  0
  -10.1863   -6.2423  -25.0930 H   0  0  0  0  0  0  0  0  0  0  0  0
  -10.2213   -2.2996  -20.9386 H   0  0  0  0  0  0  0  0  0  0  0  0
   -9.5355   -3.9423  -20.8006 H   0  0  0  0  0  0  0  0  0  0  0  0
   -9.2152   -0.1785  -21.2276 H   0  0  0  0  0  0  0  0  0  0  0  0
   -7.9581    0.5105  -22.2882 H   0  0  0  0  0  0  0  0  0  0  0  0
   -8.1030   -1.3053  -23.8498 H   0  0  0  0  0  0  0  0  0  0  0  0
  -10.2532   -0.0525  -24.0550 H   0  0  0  0  0  0  0  0  0  0  0  0
  -11.0118   -1.1706  -22.8945 H   0  0  0  0  0  0  0  0  0  0  0  0
  -10.4368   -1.7728  -24.4356 H   0  0  0  0  0  0  0  0  0  0  0  0
  1  2  1  0
  2  3  1  0
  3  4  1  0
  4  5  1  0
  5  6  2  0
  6  7  1  0
  7  8  2  0
  8  9  1  0
  9 10  2  0
 10 11  1  0
 11 12  2  0
 12 13  1  0
 13 14  2  0
 13 15  1  0
 12 16  1  0
 11 17  1  0
 10 18  1  0
  8 19  1  0
  6 20  1  0
  4 21  1  0
 21 22  2  0
 21 23  1  0
 23 24  1  1
 24 25  1  0
 25 26  1  0
 26 27  1  0
 27 28  1  0
 28 29  2  0
 29 30  1  0
 30 31  1  0
 30 32  1  0
 29 33  1  0
 26 34  1  0
 26 35  1  0
 25 36  1  0
 36 37  2  0
 36 38  1  0
 38 39  2  0
 39 40  1  0
 40 41  2  0
 41 42  1  0
 41 43  1  0
 43 44  2  0
 43 45  1  0
 40 46  1  0
 39 47  1  0
 24 48  1  0
 24 49  1  0
  3 50  1  0
  3 51  1  0
  2 52  1  6
  1 53  1  0
  1 54  1  0
  1 55  1  0
 23  2  1  0
 31 27  2  0
 44 38  1  0
 14  5  1  0
 44 23  1  0
 14  9  1  0
M  END
>  <cnnaffinities>  (62) 
[6.79996, 6.85294]

>  <score>  (62) 
6.79996

>  <index>  (62) 
64

>  <Smiles>  (62) 
C([C@]1(C(N(c2c(nc(c3c(c(c(c(c23)[H])[H])[H])[H])[H])[H])C(=O)[C@]21C(N(C(c1nc(n(n1)[H])[H])([H])[H])C(=O)c1c(c(c(F)c(c21)[H])[H])[H])([H])[H])([H])[H])[H])([H])([H])[H]

>  <h>  (62) 
<NA>

>  <Training>  (62) 
True

>  <Success>  (62) 
True

>  <enamine_searched>  (62) 
False

>  <enamine_id>  (62) 
nan

$$$$

     RDKit          3D

 55 60  0  0  0  0  0  0  0  0999 V2000
  -10.2072   -1.0312  -23.6667 C   0  0  0  0  0  0  0  0  0  0  0  0
   -8.8514   -1.3485  -23.0429 C   0  0  1  0  0  0  0  0  0  0  0  0
   -8.3951   -0.4142  -21.9080 C   0  0  0  0  0  0  0  0  0  0  0  0
   -7.3950   -1.2134  -21.2191 N   0  0  0  0  0  0  0  0  0  0  0  0
   -6.5895   -0.7439  -20.1547 C   0  0  0  0  0  0  0  0  0  0  0  0
   -6.8835   -1.0474  -18.8530 C   0  0  0  0  0  0  0  0  0  0  0  0
   -6.2131   -0.5382  -17.7862 N   0  0  0  0  0  0  0  0  0  0  0  0
   -5.2012    0.2638  -18.0276 C   0  0  0  0  0  0  0  0  0  0  0  0
   -4.7475    0.5997  -19.3387 C   0  0  0  0  0  0  0  0  0  0  0  0
   -3.6106    1.4138  -19.5852 C   0  0  0  0  0  0  0  0  0  0  0  0
   -3.1934    1.6532  -20.8670 C   0  0  0  0  0  0  0  0  0  0  0  0
   -3.8841    1.0974  -21.9660 C   0  0  0  0  0  0  0  0  0  0  0  0
   -4.9948    0.3215  -21.7587 C   0  0  0  0  0  0  0  0  0  0  0  0
   -5.4532    0.0691  -20.4402 C   0  0  0  0  0  0  0  0  0  0  0  0
   -5.5171   -0.1299  -22.5953 H   0  0  0  0  0  0  0  0  0  0  0  0
   -3.5378    1.2799  -22.9788 H   0  0  0  0  0  0  0  0  0  0  0  0
   -2.3238    2.2758  -21.0559 H   0  0  0  0  0  0  0  0  0  0  0  0
   -3.0819    1.8434  -18.7400 H   0  0  0  0  0  0  0  0  0  0  0  0
   -4.6697    0.6674  -17.1621 H   0  0  0  0  0  0  0  0  0  0  0  0
   -7.7047   -1.7255  -18.6217 H   0  0  0  0  0  0  0  0  0  0  0  0
   -7.5070   -2.5617  -21.4753 C   0  0  0  0  0  0  0  0  0  0  0  0
   -6.7830   -3.4082  -20.9971 O   0  0  0  0  0  0  0  0  0  0  0  0
   -8.6907   -2.7804  -22.4249 C   0  0  1  0  0  0  0  0  0  0  0  0
   -9.9108   -3.1987  -21.5430 C   0  0  0  0  0  0  0  0  0  0  0  0
  -11.0530   -3.6634  -22.3155 N   0  0  0  0  0  0  0  0  0  0  0  0
  -12.4106   -3.6382  -21.7648 C   0  0  0  0  0  0  0  0  0  0  0  0
  -13.2874   -2.5096  -22.2236 C   0  0  0  0  0  0  0  0  0  0  0  0
  -14.0586   -1.6828  -21.4798 C   0  0  0  0  0  0  0  0  0  0  0  0
  -14.7689   -0.8839  -22.3298 O   0  0  0  0  0  0  0  0  0  0  0  0
  -14.3703   -1.2635  -23.5573 C   0  0  0  0  0  0  0  0  0  0  0  0
  -13.5155   -2.2332  -23.5652 N   0  0  0  0  0  0  0  0  0  0  0  0
  -14.8117   -0.7471  -24.3997 H   0  0  0  0  0  0  0  0  0  0  0  0
  -14.2108   -1.5246  -20.4191 H   0  0  0  0  0  0  0  0  0  0  0  0
  -12.8848   -4.5670  -22.0924 H   0  0  0  0  0  0  0  0  0  0  0  0
  -12.3955   -3.6378  -20.6732 H   0  0  0  0  0  0  0  0  0  0  0  0
  -10.8363   -4.5280  -23.3502 C   0  0  0  0  0  0  0  0  0  0  0  0
  -11.7288   -5.1882  -23.8346 O   0  0  0  0  0  0  0  0  0  0  0  0
   -9.4531   -4.6627  -23.8808 C   0  0  0  0  0  0  0  0  0  0  0  0
   -9.2642   -5.6525  -24.8401 C   0  0  0  0  0  0  0  0  0  0  0  0
   -8.0240   -5.8708  -25.3947 C   0  0  0  0  0  0  0  0  0  0  0  0
   -6.9781   -5.0605  -24.9681 C   0  0  0  0  0  0  0  0  0  0  0  0
   -5.7648   -5.2777  -25.5020 F   0  0  0  0  0  0  0  0  0  0  0  0
   -7.1364   -4.0718  -24.0122 C   0  0  0  0  0  0  0  0  0  0  0  0
   -8.4050   -3.8588  -23.4457 C   0  0  0  0  0  0  0  0  0  0  0  0
   -6.2657   -3.5039  -23.7035 H   0  0  0  0  0  0  0  0  0  0  0  0
   -7.8551   -6.6498  -26.1297 H   0  0  0  0  0  0  0  0  0  0  0  0
  -10.1341   -6.2369  -25.1167 H   0  0  0  0  0  0  0  0  0  0  0  0
  -10.2591   -2.3396  -20.9666 H   0  0  0  0  0  0  0  0  0  0  0  0
   -9.5680   -3.9779  -20.8456 H   0  0  0  0  0  0  0  0  0  0  0  0
   -9.2220   -0.1734  -21.2242 H   0  0  0  0  0  0  0  0  0  0  0  0
   -7.9632    0.5257  -22.2695 H   0  0  0  0  0  0  0  0  0  0  0  0
   -8.1011   -1.2833  -23.8450 H   0  0  0  0  0  0  0  0  0  0  0  0
  -11.0317   -1.1131  -22.9515 H   0  0  0  0  0  0  0  0  0  0  0  0
  -10.4105   -1.7232  -24.4906 H   0  0  0  0  0  0  0  0  0  0  0  0
  -10.2170   -0.0214  -24.0862 H   0  0  0  0  0  0  0  0  0  0  0  0
  1  2  1  0
  2  3  1  0
  3  4  1  0
  4  5  1  0
  5  6  2  0
  6  7  1  0
  7  8  2  0
  8  9  1  0
  9 10  2  0
 10 11  1  0
 11 12  2  0
 12 13  1  0
 13 14  2  0
 13 15  1  0
 12 16  1  0
 11 17  1  0
 10 18  1  0
  8 19  1  0
  6 20  1  0
  4 21  1  0
 21 22  2  0
 21 23  1  0
 23 24  1  1
 24 25  1  0
 25 26  1  0
 26 27  1  0
 27 28  2  0
 28 29  1  0
 29 30  1  0
 30 31  2  0
 30 32  1  0
 28 33  1  0
 26 34  1  0
 26 35  1  0
 25 36  1  0
 36 37  2  0
 36 38  1  0
 38 39  2  0
 39 40  1  0
 40 41  2  0
 41 42  1  0
 41 43  1  0
 43 44  2  0
 43 45  1  0
 40 46  1  0
 39 47  1  0
 24 48  1  0
 24 49  1  0
  3 50  1  0
  3 51  1  0
  2 52  1  6
  1 53  1  0
  1 54  1  0
  1 55  1  0
 23  2  1  0
 31 27  1  0
 44 38  1  0
 14  5  1  0
 44 23  1  0
 14  9  1  0
M  END
>  <cnnaffinities>  (63) 
[6.7209]

>  <score>  (63) 
6.7209

>  <index>  (63) 
65

>  <Smiles>  (63) 
C([C@]1(C(N(c2c(nc(c3c(c(c(c(c23)[H])[H])[H])[H])[H])[H])C(=O)[C@]21C(N(C(c1c(oc(n1)[H])[H])([H])[H])C(=O)c1c(c(c(F)c(c21)[H])[H])[H])([H])[H])([H])[H])[H])([H])([H])[H]

>  <h>  (63) 
<NA>

>  <Training>  (63) 
True

>  <Success>  (63) 
True

>  <enamine_searched>  (63) 
False

>  <enamine_id>  (63) 
nan

$$$$

     RDKit          3D

 44 47  0  0  0  0  0  0  0  0999 V2000
   -7.8534   -0.5964  -24.9390 C   0  0  0  0  0  0  0  0  0  0  0  0
   -8.3641   -2.0208  -25.0894 C   0  0  0  0  0  0  0  0  0  0  0  0
   -8.3292   -2.8409  -23.7847 C   0  0  1  0  0  0  0  0  0  0  0  0
   -8.8922   -4.2151  -24.0592 C   0  0  0  0  0  0  0  0  0  0  0  0
  -10.2596   -4.4979  -24.3738 C   0  0  0  0  0  0  0  0  0  0  0  0
  -10.4575   -5.7883  -24.7677 C   0  0  0  0  0  0  0  0  0  0  0  0
   -8.9733   -6.6786  -24.7392 S   0  0  0  0  0  0  0  0  0  0  0  0
   -8.0842   -5.3039  -24.1712 C   0  0  0  0  0  0  0  0  0  0  0  0
   -6.6038   -5.3275  -23.8892 C   0  0  0  0  0  0  0  0  0  0  0  0
   -6.0926   -3.8850  -23.9435 C   0  0  0  0  0  0  0  0  0  0  0  0
   -6.9822   -2.9787  -23.2227 N   0  0  0  0  0  0  0  0  0  0  0  0
   -6.6388   -2.6729  -21.9241 C   0  0  0  0  0  0  0  0  0  0  0  0
   -5.7636   -3.2751  -21.3286 O   0  0  0  0  0  0  0  0  0  0  0  0
   -7.3812   -1.4992  -21.2748 C   0  0  0  0  0  0  0  0  0  0  0  0
   -6.5781   -0.8424  -20.1833 C   0  0  0  0  0  0  0  0  0  0  0  0
   -6.8791   -1.0613  -18.8661 C   0  0  0  0  0  0  0  0  0  0  0  0
   -6.2028   -0.5501  -17.8012 N   0  0  0  0  0  0  0  0  0  0  0  0
   -5.1732    0.2150  -18.0698 C   0  0  0  0  0  0  0  0  0  0  0  0
   -4.7308    0.5245  -19.3855 C   0  0  0  0  0  0  0  0  0  0  0  0
   -3.6035    1.3553  -19.6177 C   0  0  0  0  0  0  0  0  0  0  0  0
   -3.1990    1.6304  -20.8962 C   0  0  0  0  0  0  0  0  0  0  0  0
   -3.9056    1.0904  -21.9953 C   0  0  0  0  0  0  0  0  0  0  0  0
   -5.0018    0.2891  -21.7933 C   0  0  0  0  0  0  0  0  0  0  0  0
   -5.4482   -0.0184  -20.4785 C   0  0  0  0  0  0  0  0  0  0  0  0
   -5.5313   -0.1158  -22.6517 H   0  0  0  0  0  0  0  0  0  0  0  0
   -3.5831    1.3170  -23.0085 H   0  0  0  0  0  0  0  0  0  0  0  0
   -2.3404    2.2707  -21.0738 H   0  0  0  0  0  0  0  0  0  0  0  0
   -3.0815    1.7644  -18.7544 H   0  0  0  0  0  0  0  0  0  0  0  0
   -4.6272    0.6288  -17.2199 H   0  0  0  0  0  0  0  0  0  0  0  0
   -7.7309   -1.6891  -18.6022 H   0  0  0  0  0  0  0  0  0  0  0  0
   -7.6506   -0.7833  -22.0594 H   0  0  0  0  0  0  0  0  0  0  0  0
   -8.3240   -1.8802  -20.8587 H   0  0  0  0  0  0  0  0  0  0  0  0
   -6.0471   -3.5517  -24.9921 H   0  0  0  0  0  0  0  0  0  0  0  0
   -5.1063   -3.7938  -23.4814 H   0  0  0  0  0  0  0  0  0  0  0  0
   -6.3958   -5.7693  -22.8990 H   0  0  0  0  0  0  0  0  0  0  0  0
   -6.0870   -5.9376  -24.6413 H   0  0  0  0  0  0  0  0  0  0  0  0
  -11.3934   -6.2740  -25.0281 H   0  0  0  0  0  0  0  0  0  0  0  0
  -11.0562   -3.7697  -24.2860 H   0  0  0  0  0  0  0  0  0  0  0  0
   -8.9566   -2.3320  -23.0334 H   0  0  0  0  0  0  0  0  0  0  0  0
   -7.8078   -2.5660  -25.8667 H   0  0  0  0  0  0  0  0  0  0  0  0
   -9.4113   -2.0359  -25.4195 H   0  0  0  0  0  0  0  0  0  0  0  0
   -7.9153   -0.0476  -25.8817 H   0  0  0  0  0  0  0  0  0  0  0  0
   -6.8064   -0.5754  -24.6156 H   0  0  0  0  0  0  0  0  0  0  0  0
   -8.4449   -0.0407  -24.2030 H   0  0  0  0  0  0  0  0  0  0  0  0
  1  2  1  0
  2  3  1  0
  3  4  1  0
  4  5  1  0
  5  6  2  0
  6  7  1  0
  7  8  1  0
  8  9  1  0
  9 10  1  0
 10 11  1  0
 11 12  1  0
 12 13  2  0
 12 14  1  0
 14 15  1  0
 15 16  2  0
 16 17  1  0
 17 18  2  0
 18 19  1  0
 19 20  2  0
 20 21  1  0
 21 22  2  0
 22 23  1  0
 23 24  2  0
 23 25  1  0
 22 26  1  0
 21 27  1  0
 20 28  1  0
 18 29  1  0
 16 30  1  0
 14 31  1  0
 14 32  1  0
 10 33  1  0
 10 34  1  0
  9 35  1  0
  9 36  1  0
  6 37  1  0
  5 38  1  0
  3 39  1  1
  2 40  1  0
  2 41  1  0
  1 42  1  0
  1 43  1  0
  1 44  1  0
 11  3  1  0
 24 15  1  0
  8  4  2  0
 24 19  1  0
M  END
>  <cnnaffinities>  (64) 
[5.80731, 5.24869]

>  <score>  (64) 
5.80731

>  <index>  (64) 
66

>  <Smiles>  (64) 
C(C([C@]1(c2c(c(sc2C(C(N1C(=O)C(c1c(nc(c2c(c(c(c(c12)[H])[H])[H])[H])[H])[H])([H])[H])([H])[H])([H])[H])[H])[H])[H])([H])[H])([H])([H])[H]

>  <h>  (64) 
<NA>

>  <Training>  (64) 
True

>  <Success>  (64) 
True

>  <enamine_searched>  (64) 
False

>  <enamine_id>  (64) 
nan

$$$$

     RDKit          3D

 58 63  0  0  0  0  0  0  0  0999 V2000
   -6.4702   -0.2754  -30.5965 C   0  0  0  0  0  0  0  0  0  0  0  0
   -6.4127   -0.2514  -29.1028 C   0  0  0  0  0  0  0  0  0  0  0  0
   -7.1274    0.6142  -28.2269 C   0  0  0  0  0  0  0  0  0  0  0  0
   -6.7218    0.2289  -26.9954 C   0  0  0  0  0  0  0  0  0  0  0  0
   -7.1006    0.6723  -25.6142 C   0  0  0  0  0  0  0  0  0  0  0  0
   -8.1955   -0.0921  -25.0586 N   0  0  0  0  0  0  0  0  0  0  0  0
   -7.9435   -1.3940  -24.4737 C   0  0  0  0  0  0  0  0  0  0  0  0
   -8.7763   -1.5656  -23.1758 C   0  0  2  0  0  0  0  0  0  0  0  0
   -8.2399   -0.5915  -22.0916 C   0  0  0  0  0  0  0  0  0  0  0  0
   -8.4236    0.5988  -22.0082 O   0  0  0  0  0  0  0  0  0  0  0  0
   -7.4522   -1.3313  -21.2260 N   0  0  0  0  0  0  0  0  0  0  0  0
   -6.6433   -0.7717  -20.2111 C   0  0  0  0  0  0  0  0  0  0  0  0
   -6.9251   -1.0567  -18.8973 C   0  0  0  0  0  0  0  0  0  0  0  0
   -6.2394   -0.5739  -17.8340 N   0  0  0  0  0  0  0  0  0  0  0  0
   -5.2131    0.2016  -18.0959 C   0  0  0  0  0  0  0  0  0  0  0  0
   -4.7725    0.5268  -19.4105 C   0  0  0  0  0  0  0  0  0  0  0  0
   -3.6322    1.3447  -19.6229 C   0  0  0  0  0  0  0  0  0  0  0  0
   -3.1981    1.6098  -20.8925 C   0  0  0  0  0  0  0  0  0  0  0  0
   -3.8721    1.0616  -22.0051 C   0  0  0  0  0  0  0  0  0  0  0  0
   -4.9853    0.2761  -21.8268 C   0  0  0  0  0  0  0  0  0  0  0  0
   -5.4813    0.0089  -20.5161 C   0  0  0  0  0  0  0  0  0  0  0  0
   -5.4844   -0.1420  -22.6970 H   0  0  0  0  0  0  0  0  0  0  0  0
   -3.5029    1.2646  -23.0056 H   0  0  0  0  0  0  0  0  0  0  0  0
   -2.3296    2.2411  -21.0505 H   0  0  0  0  0  0  0  0  0  0  0  0
   -3.1248    1.7512  -18.7528 H   0  0  0  0  0  0  0  0  0  0  0  0
   -4.6612    0.6035  -17.2474 H   0  0  0  0  0  0  0  0  0  0  0  0
   -7.7710   -1.7028  -18.6687 H   0  0  0  0  0  0  0  0  0  0  0  0
   -7.3690   -2.7390  -21.5460 C   0  0  0  0  0  0  0  0  0  0  0  0
   -8.5324   -2.9508  -22.5174 C   0  0  2  0  0  0  0  0  0  0  0  0
   -8.3394   -4.1025  -23.4929 C   0  0  0  0  0  0  0  0  0  0  0  0
   -8.2890   -5.0604  -22.9668 H   0  0  0  0  0  0  0  0  0  0  0  0
   -7.4107   -3.9705  -24.0612 H   0  0  0  0  0  0  0  0  0  0  0  0
   -9.1703   -4.1375  -24.2069 H   0  0  0  0  0  0  0  0  0  0  0  0
   -9.4010   -3.1690  -21.8922 H   0  0  0  0  0  0  0  0  0  0  0  0
   -7.4813   -3.3165  -20.6286 H   0  0  0  0  0  0  0  0  0  0  0  0
   -6.3944   -3.0087  -21.9854 H   0  0  0  0  0  0  0  0  0  0  0  0
  -10.2187   -1.2857  -23.5418 C   0  0  0  0  0  0  0  0  0  0  0  0
  -11.2765   -1.8295  -22.8045 C   0  0  0  0  0  0  0  0  0  0  0  0
  -12.5648   -1.4306  -23.0860 C   0  0  0  0  0  0  0  0  0  0  0  0
  -13.5616   -1.9036  -22.3185 F   0  0  0  0  0  0  0  0  0  0  0  0
  -12.8939   -0.5956  -24.1497 C   0  0  0  0  0  0  0  0  0  0  0  0
  -11.8568   -0.1229  -24.9224 C   0  0  0  0  0  0  0  0  0  0  0  0
  -10.5336   -0.4130  -24.5955 C   0  0  0  0  0  0  0  0  0  0  0  0
   -9.4701    0.2948  -25.3592 C   0  0  0  0  0  0  0  0  0  0  0  0
   -9.7175    1.1821  -26.1675 O   0  0  0  0  0  0  0  0  0  0  0  0
  -12.0304    0.4823  -25.8021 H   0  0  0  0  0  0  0  0  0  0  0  0
  -13.9266   -0.3026  -24.3215 H   0  0  0  0  0  0  0  0  0  0  0  0
  -11.1283   -2.5301  -21.9934 H   0  0  0  0  0  0  0  0  0  0  0  0
   -8.2008   -2.1952  -25.1855 H   0  0  0  0  0  0  0  0  0  0  0  0
   -6.8701   -1.4858  -24.2767 H   0  0  0  0  0  0  0  0  0  0  0  0
   -6.2388    0.5832  -24.9467 H   0  0  0  0  0  0  0  0  0  0  0  0
   -7.4085    1.7192  -25.6399 H   0  0  0  0  0  0  0  0  0  0  0  0
   -5.8511   -0.7821  -27.0989 O   0  0  0  0  0  0  0  0  0  0  0  0
   -5.6563   -1.0876  -28.4306 N   0  0  0  0  0  0  0  0  0  0  0  0
   -7.8616    1.3726  -28.4734 H   0  0  0  0  0  0  0  0  0  0  0  0
   -7.4901   -0.0511  -30.9246 H   0  0  0  0  0  0  0  0  0  0  0  0
   -6.1713   -1.2580  -30.9736 H   0  0  0  0  0  0  0  0  0  0  0  0
   -5.8132    0.4886  -31.0316 H   0  0  0  0  0  0  0  0  0  0  0  0
  1  2  1  0
  2  3  1  0
  3  4  2  0
  4  5  1  0
  5  6  1  0
  6  7  1  0
  8  7  1  6
  8  9  1  0
  9 10  2  0
  9 11  1  0
 11 12  1  0
 12 13  2  0
 13 14  1  0
 14 15  2  0
 15 16  1  0
 16 17  2  0
 17 18  1  0
 18 19  2  0
 19 20  1  0
 20 21  2  0
 20 22  1  0
 19 23  1  0
 18 24  1  0
 17 25  1  0
 15 26  1  0
 13 27  1  0
 11 28  1  0
 28 29  1  0
 29 30  1  0
 30 31  1  0
 30 32  1  0
 30 33  1  0
 29 34  1  1
 28 35  1  0
 28 36  1  0
  8 37  1  0
 37 38  2  0
 38 39  1  0
 39 40  1  0
 39 41  2  0
 41 42  1  0
 42 43  2  0
 43 44  1  0
 44 45  2  0
 42 46  1  0
 41 47  1  0
 38 48  1  0
  7 49  1  0
  7 50  1  0
  5 51  1  0
  5 52  1  0
  4 53  1  0
 53 54  1  0
  3 55  1  0
  1 56  1  0
  1 57  1  0
  1 58  1  0
 54  2  2  0
 44  6  1  0
 29  8  1  0
 43 37  1  0
 21 12  1  0
 21 16  1  0
M  END
>  <cnnaffinities>  (65) 
[6.31627, 6.51877]

>  <score>  (65) 
6.31627

>  <index>  (65) 
67

>  <Smiles>  (65) 
C(c1c(c(C(N2C([C@@]3(C(=O)N(c4c(nc(c5c(c(c(c(c45)[H])[H])[H])[H])[H])[H])C([C@@]3(C([H])([H])[H])[H])([H])[H])c3c(c(F)c(c(c3C2=O)[H])[H])[H])([H])[H])([H])[H])on1)[H])([H])([H])[H]

>  <h>  (65) 
<NA>

>  <Training>  (65) 
True

>  <Success>  (65) 
True

>  <enamine_searched>  (65) 
False

>  <enamine_id>  (65) 
nan

$$$$

     RDKit          3D

 65 70  0  0  0  0  0  0  0  0999 V2000
   -5.8718   -3.3953  -20.9239 O   0  0  0  0  0  0  0  0  0  0  0  0
   -6.8327   -2.9637  -21.5365 C   0  0  0  0  0  0  0  0  0  0  0  0
   -7.4020   -1.5728  -21.2215 C   0  0  0  0  0  0  0  0  0  0  0  0
   -6.6067   -0.8623  -20.1624 C   0  0  0  0  0  0  0  0  0  0  0  0
   -6.9064   -1.0584  -18.8378 C   0  0  0  0  0  0  0  0  0  0  0  0
   -6.2302   -0.5360  -17.7833 N   0  0  0  0  0  0  0  0  0  0  0  0
   -5.1986    0.2258  -18.0619 C   0  0  0  0  0  0  0  0  0  0  0  0
   -4.7616    0.5202  -19.3837 C   0  0  0  0  0  0  0  0  0  0  0  0
   -3.6348    1.3477  -19.6225 C   0  0  0  0  0  0  0  0  0  0  0  0
   -3.2313    1.6214  -20.9021 C   0  0  0  0  0  0  0  0  0  0  0  0
   -3.9441    1.0764  -21.9944 C   0  0  0  0  0  0  0  0  0  0  0  0
   -5.0437    0.2795  -21.7854 C   0  0  0  0  0  0  0  0  0  0  0  0
   -5.4840   -0.0313  -20.4700 C   0  0  0  0  0  0  0  0  0  0  0  0
   -5.5771   -0.1092  -22.6490 H   0  0  0  0  0  0  0  0  0  0  0  0
   -3.6171    1.2901  -23.0094 H   0  0  0  0  0  0  0  0  0  0  0  0
   -2.3717    2.2596  -21.0818 H   0  0  0  0  0  0  0  0  0  0  0  0
   -3.1048    1.7589  -18.7670 H   0  0  0  0  0  0  0  0  0  0  0  0
   -4.6437    0.6470  -17.2229 H   0  0  0  0  0  0  0  0  0  0  0  0
   -7.7542   -1.6896  -18.5705 H   0  0  0  0  0  0  0  0  0  0  0  0
   -8.4416   -1.6941  -20.8941 H   0  0  0  0  0  0  0  0  0  0  0  0
   -7.4195   -1.0034  -22.1580 H   0  0  0  0  0  0  0  0  0  0  0  0
   -7.3769   -3.6778  -22.6012 N   0  0  0  0  0  0  0  0  0  0  0  0
   -6.4061   -4.5645  -23.2599 C   0  0  0  0  0  0  0  0  0  0  0  0
   -5.7981   -3.9470  -24.5125 C   0  0  0  0  0  0  0  0  0  0  0  0
   -5.7548   -4.6126  -25.7371 C   0  0  0  0  0  0  0  0  0  0  0  0
   -5.1789   -4.0115  -26.8531 C   0  0  0  0  0  0  0  0  0  0  0  0
   -4.6135   -2.7462  -26.7647 C   0  0  0  0  0  0  0  0  0  0  0  0
   -4.6513   -2.0924  -25.5409 C   0  0  0  0  0  0  0  0  0  0  0  0
   -3.9238   -0.5082  -25.4042 Cl  0  0  0  0  0  0  0  0  0  0  0  0
   -5.2521   -2.6644  -24.4292 C   0  0  0  0  0  0  0  0  0  0  0  0
   -5.2799   -2.1056  -23.4960 H   0  0  0  0  0  0  0  0  0  0  0  0
   -4.1536   -2.2694  -27.6248 H   0  0  0  0  0  0  0  0  0  0  0  0
   -5.1893   -4.5299  -27.8074 H   0  0  0  0  0  0  0  0  0  0  0  0
   -6.1807   -5.6115  -25.8335 H   0  0  0  0  0  0  0  0  0  0  0  0
   -5.6274   -4.7190  -22.5100 H   0  0  0  0  0  0  0  0  0  0  0  0
   -6.8670   -5.5337  -23.4648 H   0  0  0  0  0  0  0  0  0  0  0  0
   -8.7790   -3.6575  -23.0413 C   0  0  2  0  0  0  0  0  0  0  0  0
   -9.0596   -4.6604  -24.1928 C   0  0  0  0  0  0  0  0  0  0  0  0
  -10.4344   -4.2489  -24.7478 C   0  0  0  0  0  0  0  0  0  0  0  0
  -10.7685   -3.0195  -23.9030 C   0  0  2  0  0  0  0  0  0  0  0  0
   -9.3993   -2.3810  -23.6398 C   0  0  0  0  0  0  0  0  0  0  0  0
   -9.4724   -1.5429  -22.9390 H   0  0  0  0  0  0  0  0  0  0  0  0
   -8.8995   -2.0579  -24.5589 H   0  0  0  0  0  0  0  0  0  0  0  0
  -11.1664   -3.5754  -22.5308 N   0  0  2  0  0  4  0  0  0  0  0  0
  -11.9907   -2.6806  -21.6514 C   0  0  0  0  0  0  0  0  0  0  0  0
  -13.4459   -2.5557  -22.0989 C   0  0  0  0  0  0  0  0  0  0  0  0
  -14.4127   -1.8321  -21.1168 C   0  0  0  0  0  0  0  0  0  0  0  0
  -15.0938   -3.0531  -20.8054 O   0  0  0  0  0  0  0  0  0  0  0  0
  -14.2630   -3.8039  -21.6940 C   0  0  0  0  0  0  0  0  0  0  0  0
  -13.6697   -4.5466  -21.1341 H   0  0  0  0  0  0  0  0  0  0  0  0
  -14.8329   -4.3046  -22.4846 H   0  0  0  0  0  0  0  0  0  0  0  0
  -13.9997   -1.3873  -20.2052 H   0  0  0  0  0  0  0  0  0  0  0  0
  -15.1048   -1.0960  -21.5474 H   0  0  0  0  0  0  0  0  0  0  0  0
  -13.5149   -2.2354  -23.1459 H   0  0  0  0  0  0  0  0  0  0  0  0
  -11.4967   -1.7123  -21.5036 H   0  0  0  0  0  0  0  0  0  0  0  0
  -12.0499   -3.1565  -20.6740 H   0  0  0  0  0  0  0  0  0  0  0  0
   -9.8204   -3.9846  -21.9387 C   0  0  0  0  0  0  0  0  0  0  0  0
   -9.8268   -5.0440  -21.6897 H   0  0  0  0  0  0  0  0  0  0  0  0
   -9.6467   -3.4159  -21.0252 H   0  0  0  0  0  0  0  0  0  0  0  0
  -11.7522   -4.4205  -22.6580 H   0  0  0  0  0  0  0  0  0  0  0  0
  -11.5549   -2.3821  -24.2922 H   0  0  0  0  0  0  0  0  0  0  0  0
  -11.1770   -5.0394  -24.6039 H   0  0  0  0  0  0  0  0  0  0  0  0
  -10.3889   -4.0039  -25.8134 H   0  0  0  0  0  0  0  0  0  0  0  0
   -8.3000   -4.5456  -24.9674 H   0  0  0  0  0  0  0  0  0  0  0  0
   -9.0428   -5.6935  -23.8316 H   0  0  0  0  0  0  0  0  0  0  0  0
  1  2  2  0
  2  3  1  0
  3  4  1  0
  4  5  2  0
  5  6  1  0
  6  7  2  0
  7  8  1  0
  8  9  2  0
  9 10  1  0
 10 11  2  0
 11 12  1  0
 12 13  2  0
 12 14  1  0
 11 15  1  0
 10 16  1  0
  9 17  1  0
  7 18  1  0
  5 19  1  0
  3 20  1  0
  3 21  1  0
  2 22  1  0
 22 23  1  0
 23 24  1  0
 24 25  2  0
 25 26  1  0
 26 27  2  0
 27 28  1  0
 28 29  1  0
 28 30  2  0
 30 31  1  0
 27 32  1  0
 26 33  1  0
 25 34  1  0
 23 35  1  0
 23 36  1  0
 37 22  1  1
 37 38  1  0
 38 39  1  0
 39 40  1  0
 40 41  1  0
 41 42  1  0
 41 43  1  0
 40 44  1  0
 44 45  1  0
 45 46  1  0
 46 47  1  0
 47 48  1  0
 48 49  1  0
 49 50  1  0
 49 51  1  0
 47 52  1  0
 47 53  1  0
 46 54  1  0
 45 55  1  0
 45 56  1  0
 44 57  1  0
 57 58  1  0
 57 59  1  0
 44 60  1  6
 40 61  1  6
 39 62  1  0
 39 63  1  0
 38 64  1  0
 38 65  1  0
 13  4  1  0
 30 24  1  0
 41 37  1  0
 49 46  1  0
 13  8  1  0
 57 37  1  0
M  CHG  1  44   1
M  END
>  <cnnaffinities>  (66) 
[6.28661]

>  <score>  (66) 
6.28661

>  <index>  (66) 
68

>  <Smiles>  (66) 
O=C(C(c1c(nc(c2c(c(c(c(c12)[H])[H])[H])[H])[H])[H])([H])[H])N(C(c1c(c(c(c(Cl)c1[H])[H])[H])[H])([H])[H])[C@]12C(C([C@](C1([H])[H])([N@+](C(C1(C(OC1([H])[H])([H])[H])[H])([H])[H])(C2([H])[H])[H])[H])([H])[H])([H])[H]

>  <h>  (66) 
<NA>

>  <Training>  (66) 
True

>  <Success>  (66) 
True

>  <enamine_searched>  (66) 
False

>  <enamine_id>  (66) 
nan

$$$$

     RDKit          3D

 63 67  0  0  0  0  0  0  0  0999 V2000
   -9.7623   -6.5012  -28.0811 C   0  0  0  0  0  0  0  0  0  0  0  0
  -10.0748   -5.4838  -27.2729 C   0  0  0  0  0  0  0  0  0  0  0  0
   -9.0247   -4.6185  -26.6508 C   0  0  0  0  0  0  0  0  0  0  0  0
   -7.8449   -4.7777  -26.9154 O   0  0  0  0  0  0  0  0  0  0  0  0
   -9.4688   -3.6384  -25.7606 N   0  0  0  0  0  0  0  0  0  0  0  0
  -10.8125   -3.7673  -25.1933 C   0  0  0  0  0  0  0  0  0  0  0  0
  -11.1830   -2.6202  -24.2679 C   0  0  0  0  0  0  0  0  0  0  0  0
  -10.0064   -2.1696  -23.4199 C   0  0  0  0  0  0  0  0  0  0  0  0
   -8.8715   -1.7489  -24.3212 C   0  0  0  0  0  0  0  0  0  0  0  0
   -8.6705   -2.4917  -25.5039 C   0  0  0  0  0  0  0  0  0  0  0  0
   -7.7475   -2.0507  -26.4576 C   0  0  0  0  0  0  0  0  0  0  0  0
   -7.0248   -0.8910  -26.2435 C   0  0  0  0  0  0  0  0  0  0  0  0
   -7.1470   -0.1914  -25.0465 C   0  0  0  0  0  0  0  0  0  0  0  0
   -8.0516   -0.6449  -24.0915 C   0  0  0  0  0  0  0  0  0  0  0  0
   -8.1574    0.2044  -22.7945 N   0  0  1  0  0  4  0  0  0  0  0  0
   -9.2785    1.3456  -22.8143 C   0  0  0  0  0  0  0  0  0  0  0  0
   -9.1163    2.2539  -23.9913 C   0  0  0  0  0  0  0  0  0  0  0  0
   -8.4491    3.4705  -23.8602 C   0  0  0  0  0  0  0  0  0  0  0  0
   -8.2072    4.2635  -24.9742 C   0  0  0  0  0  0  0  0  0  0  0  0
   -8.6429    3.8585  -26.2289 C   0  0  0  0  0  0  0  0  0  0  0  0
   -9.3634    2.6746  -26.3450 C   0  0  0  0  0  0  0  0  0  0  0  0
   -9.9644    2.2228  -27.9179 Cl  0  0  0  0  0  0  0  0  0  0  0  0
   -9.6101    1.8710  -25.2427 C   0  0  0  0  0  0  0  0  0  0  0  0
  -10.0868    0.8977  -25.3496 H   0  0  0  0  0  0  0  0  0  0  0  0
   -8.4290    4.4448  -27.1155 H   0  0  0  0  0  0  0  0  0  0  0  0
   -7.6613    5.1960  -24.8615 H   0  0  0  0  0  0  0  0  0  0  0  0
   -8.0800    3.7746  -22.8831 H   0  0  0  0  0  0  0  0  0  0  0  0
   -9.2179    1.8765  -21.8615 H   0  0  0  0  0  0  0  0  0  0  0  0
  -10.2257    0.8105  -22.8664 H   0  0  0  0  0  0  0  0  0  0  0  0
   -8.2010   -0.5045  -21.5185 C   0  0  0  0  0  0  0  0  0  0  0  0
   -9.0461   -0.2175  -20.7070 O   0  0  0  0  0  0  0  0  0  0  0  0
   -7.1318   -1.5493  -21.2116 C   0  0  0  0  0  0  0  0  0  0  0  0
   -6.2706   -1.0191  -20.0958 C   0  0  0  0  0  0  0  0  0  0  0  0
   -6.6215   -1.2084  -18.7844 C   0  0  0  0  0  0  0  0  0  0  0  0
   -6.0235   -0.6116  -17.7195 N   0  0  0  0  0  0  0  0  0  0  0  0
   -5.0379    0.2158  -17.9782 C   0  0  0  0  0  0  0  0  0  0  0  0
   -4.5639    0.5021  -19.2897 C   0  0  0  0  0  0  0  0  0  0  0  0
   -3.5219    1.4311  -19.5336 C   0  0  0  0  0  0  0  0  0  0  0  0
   -3.1392    1.7299  -20.8124 C   0  0  0  0  0  0  0  0  0  0  0  0
   -3.7632    1.0943  -21.9095 C   0  0  0  0  0  0  0  0  0  0  0  0
   -4.7529    0.1677  -21.6955 C   0  0  0  0  0  0  0  0  0  0  0  0
   -5.1925   -0.1385  -20.3814 C   0  0  0  0  0  0  0  0  0  0  0  0
   -5.2088   -0.3162  -22.5562 H   0  0  0  0  0  0  0  0  0  0  0  0
   -3.4657    1.3420  -22.9248 H   0  0  0  0  0  0  0  0  0  0  0  0
   -2.3469    2.4481  -20.9974 H   0  0  0  0  0  0  0  0  0  0  0  0
   -3.0330    1.8927  -18.6794 H   0  0  0  0  0  0  0  0  0  0  0  0
   -4.5666    0.7183  -17.1301 H   0  0  0  0  0  0  0  0  0  0  0  0
   -7.4589   -1.8639  -18.5471 H   0  0  0  0  0  0  0  0  0  0  0  0
   -6.5714   -1.7996  -22.1118 H   0  0  0  0  0  0  0  0  0  0  0  0
   -7.6654   -2.4455  -20.8782 H   0  0  0  0  0  0  0  0  0  0  0  0
   -7.2460    0.7274  -22.8153 H   0  0  0  0  0  0  0  0  0  0  0  0
   -6.5865    0.7318  -24.8978 H   0  0  0  0  0  0  0  0  0  0  0  0
   -6.3557   -0.5460  -27.0305 H   0  0  0  0  0  0  0  0  0  0  0  0
   -7.6066   -2.6066  -27.3758 H   0  0  0  0  0  0  0  0  0  0  0  0
   -9.6606   -2.9686  -22.7495 H   0  0  0  0  0  0  0  0  0  0  0  0
  -10.3137   -1.3382  -22.7828 H   0  0  0  0  0  0  0  0  0  0  0  0
  -11.5331   -1.7694  -24.8683 H   0  0  0  0  0  0  0  0  0  0  0  0
  -12.0216   -2.9329  -23.6391 H   0  0  0  0  0  0  0  0  0  0  0  0
  -10.8815   -4.7357  -24.6780 H   0  0  0  0  0  0  0  0  0  0  0  0
  -11.5293   -3.7784  -26.0168 H   0  0  0  0  0  0  0  0  0  0  0  0
  -11.1200   -5.2760  -27.0927 H   0  0  0  0  0  0  0  0  0  0  0  0
   -8.7329   -6.7621  -28.3104 H   0  0  0  0  0  0  0  0  0  0  0  0
  -10.5534   -7.1053  -28.5166 H   0  0  0  0  0  0  0  0  0  0  0  0
  1  2  2  0
  2  3  1  0
  3  4  2  0
  3  5  1  0
  5  6  1  0
  6  7  1  0
  7  8  1  0
  8  9  1  0
  9 10  2  0
 10 11  1  0
 11 12  2  0
 12 13  1  0
 13 14  2  0
 14 15  1  0
 15 16  1  0
 16 17  1  0
 17 18  2  0
 18 19  1  0
 19 20  2  0
 20 21  1  0
 21 22  1  0
 21 23  2  0
 23 24  1  0
 20 25  1  0
 19 26  1  0
 18 27  1  0
 16 28  1  0
 16 29  1  0
 15 30  1  0
 30 31  2  0
 30 32  1  0
 32 33  1  0
 33 34  2  0
 34 35  1  0
 35 36  2  0
 36 37  1  0
 37 38  2  0
 38 39  1  0
 39 40  2  0
 40 41  1  0
 41 42  2  0
 41 43  1  0
 40 44  1  0
 39 45  1  0
 38 46  1  0
 36 47  1  0
 34 48  1  0
 32 49  1  0
 32 50  1  0
 15 51  1  1
 13 52  1  0
 12 53  1  0
 11 54  1  0
  8 55  1  0
  8 56  1  0
  7 57  1  0
  7 58  1  0
  6 59  1  0
  6 60  1  0
  2 61  1  0
  1 62  1  0
  1 63  1  0
 10  5  1  0
 23 17  1  0
 42 33  1  0
 14  9  1  0
 42 37  1  0
M  CHG  1  15   1
M  END
>  <cnnaffinities>  (67) 
[6.15988]

>  <score>  (67) 
6.15988

>  <index>  (67) 
69

>  <Smiles>  (67) 
C(=C(C(=O)N1C(C(C(c2c1c(c(c(c2[N@@+](C(c1c(c(c(c(Cl)c1[H])[H])[H])[H])([H])[H])(C(=O)C(c1c(nc(c2c(c(c(c(c12)[H])[H])[H])[H])[H])[H])([H])[H])[H])[H])[H])[H])([H])[H])([H])[H])([H])[H])[H])([H])[H]

>  <h>  (67) 
<NA>

>  <Training>  (67) 
True

>  <Success>  (67) 
True

>  <enamine_searched>  (67) 
False

>  <enamine_id>  (67) 
nan

$$$$

     RDKit          3D

 52 54  0  0  0  0  0  0  0  0999 V2000
  -10.5442   -4.9045  -27.1567 C   0  0  0  0  0  0  0  0  0  0  0  0
   -9.9798   -6.2230  -26.6347 C   0  0  0  0  0  0  0  0  0  0  0  0
  -11.0470   -7.2988  -26.8320 C   0  0  0  0  0  0  0  0  0  0  0  0
  -11.8784   -7.1016  -26.1472 H   0  0  0  0  0  0  0  0  0  0  0  0
  -10.6781   -8.3070  -26.6175 H   0  0  0  0  0  0  0  0  0  0  0  0
  -11.4503   -7.2859  -27.8507 H   0  0  0  0  0  0  0  0  0  0  0  0
   -9.5805   -6.2028  -25.1537 C   0  0  0  0  0  0  0  0  0  0  0  0
   -8.4327   -5.2935  -24.6694 C   0  0  0  0  0  0  0  0  0  0  0  0
   -7.2890   -5.3816  -25.6889 C   0  0  0  0  0  0  0  0  0  0  0  0
   -6.9930   -6.4246  -25.8518 H   0  0  0  0  0  0  0  0  0  0  0  0
   -6.3876   -4.8345  -25.4065 H   0  0  0  0  0  0  0  0  0  0  0  0
   -7.5934   -4.9952  -26.6623 H   0  0  0  0  0  0  0  0  0  0  0  0
   -8.9289   -3.8294  -24.4389 C   0  0  0  0  0  0  0  0  0  0  0  0
   -8.7894   -3.3850  -22.9747 C   0  0  0  0  0  0  0  0  0  0  0  0
   -7.4338   -3.6328  -22.4864 N   0  0  0  0  0  0  0  0  0  0  0  0
   -6.7081   -2.7943  -21.6877 C   0  0  0  0  0  0  0  0  0  0  0  0
   -5.5759   -3.0707  -21.3158 O   0  0  0  0  0  0  0  0  0  0  0  0
   -7.3904   -1.4955  -21.2477 C   0  0  0  0  0  0  0  0  0  0  0  0
   -6.6061   -0.8303  -20.1695 C   0  0  0  0  0  0  0  0  0  0  0  0
   -6.9237   -1.0627  -18.8551 C   0  0  0  0  0  0  0  0  0  0  0  0
   -6.2488   -0.5600  -17.7888 N   0  0  0  0  0  0  0  0  0  0  0  0
   -5.2152    0.1988  -18.0571 C   0  0  0  0  0  0  0  0  0  0  0  0
   -4.7540    0.4988  -19.3704 C   0  0  0  0  0  0  0  0  0  0  0  0
   -3.6307    1.3315  -19.6081 C   0  0  0  0  0  0  0  0  0  0  0  0
   -3.2230    1.5994  -20.8858 C   0  0  0  0  0  0  0  0  0  0  0  0
   -3.9062    1.0347  -21.9890 C   0  0  0  0  0  0  0  0  0  0  0  0
   -4.9948    0.2210  -21.7874 C   0  0  0  0  0  0  0  0  0  0  0  0
   -5.4615   -0.0447  -20.4679 C   0  0  0  0  0  0  0  0  0  0  0  0
   -5.4910   -0.2292  -22.6432 H   0  0  0  0  0  0  0  0  0  0  0  0
   -3.5755    1.2625  -23.0007 H   0  0  0  0  0  0  0  0  0  0  0  0
   -2.3745    2.2561  -21.0645 H   0  0  0  0  0  0  0  0  0  0  0  0
   -3.1174    1.7604  -18.7487 H   0  0  0  0  0  0  0  0  0  0  0  0
   -4.6765    0.6207  -17.2054 H   0  0  0  0  0  0  0  0  0  0  0  0
   -7.7717   -1.7063  -18.6202 H   0  0  0  0  0  0  0  0  0  0  0  0
   -7.5279   -0.8310  -22.1117 H   0  0  0  0  0  0  0  0  0  0  0  0
   -8.3875   -1.7420  -20.8638 H   0  0  0  0  0  0  0  0  0  0  0  0
   -6.9035   -4.9827  -22.6557 C   0  0  0  0  0  0  0  0  0  0  0  0
   -7.9563   -5.8604  -23.3070 C   0  0  0  0  0  0  0  0  0  0  0  0
   -8.8130   -5.9011  -22.6313 H   0  0  0  0  0  0  0  0  0  0  0  0
   -7.5713   -6.8852  -23.3984 H   0  0  0  0  0  0  0  0  0  0  0  0
   -5.9901   -4.9546  -23.2602 H   0  0  0  0  0  0  0  0  0  0  0  0
   -6.6015   -5.3610  -21.6716 H   0  0  0  0  0  0  0  0  0  0  0  0
   -9.0259   -2.3221  -22.8914 H   0  0  0  0  0  0  0  0  0  0  0  0
   -9.5239   -3.9212  -22.3476 H   0  0  0  0  0  0  0  0  0  0  0  0
   -9.9943   -3.7442  -24.6866 H   0  0  0  0  0  0  0  0  0  0  0  0
   -8.3951   -3.1203  -25.0926 H   0  0  0  0  0  0  0  0  0  0  0  0
  -10.4699   -5.9561  -24.5584 H   0  0  0  0  0  0  0  0  0  0  0  0
   -9.3150   -7.2352  -24.8981 H   0  0  0  0  0  0  0  0  0  0  0  0
   -9.1004   -6.5024  -27.2320 H   0  0  0  0  0  0  0  0  0  0  0  0
   -9.8240   -4.0809  -27.1634 H   0  0  0  0  0  0  0  0  0  0  0  0
  -11.4086   -4.5840  -26.5589 H   0  0  0  0  0  0  0  0  0  0  0  0
  -10.9070   -5.0538  -28.1799 H   0  0  0  0  0  0  0  0  0  0  0  0
  1  2  1  0
  2  3  1  0
  3  4  1  0
  3  5  1  0
  3  6  1  0
  2  7  1  0
  7  8  1  0
  8  9  1  0
  9 10  1  0
  9 11  1  0
  9 12  1  0
  8 13  1  0
 13 14  1  0
 14 15  1  0
 15 16  1  0
 16 17  2  0
 16 18  1  0
 18 19  1  0
 19 20  2  0
 20 21  1  0
 21 22  2  0
 22 23  1  0
 23 24  2  0
 24 25  1  0
 25 26  2  0
 26 27  1  0
 27 28  2  0
 27 29  1  0
 26 30  1  0
 25 31  1  0
 24 32  1  0
 22 33  1  0
 20 34  1  0
 18 35  1  0
 18 36  1  0
 15 37  1  0
 37 38  1  0
 38 39  1  0
 38 40  1  0
 37 41  1  0
 37 42  1  0
 14 43  1  0
 14 44  1  0
 13 45  1  0
 13 46  1  0
  7 47  1  0
  7 48  1  0
  2 49  1  0
  1 50  1  0
  1 51  1  0
  1 52  1  0
 38  8  1  0
 28 19  1  0
 28 23  1  0
M  END
>  <cnnaffinities>  (68) 
[5.16325, 5.16805]

>  <score>  (68) 
5.16325

>  <index>  (68) 
70

>  <Smiles>  (68) 
C(C(C([H])([H])[H])(C(C1(C([H])([H])[H])C(C(N(C(=O)C(c2c(nc(c3c(c(c(c(c23)[H])[H])[H])[H])[H])[H])([H])[H])C(C1([H])[H])([H])[H])([H])[H])([H])[H])([H])[H])[H])([H])([H])[H]

>  <h>  (68) 
<NA>

>  <Training>  (68) 
True

>  <Success>  (68) 
True

>  <enamine_searched>  (68) 
False

>  <enamine_id>  (68) 
nan

$$$$

     RDKit          3D

 50 54  0  0  0  0  0  0  0  0999 V2000
   -8.4343   -4.1113  -23.4315 C   0  0  0  0  0  0  0  0  0  0  0  0
   -8.5705   -2.9153  -22.5029 C   0  0  1  0  0  0  0  0  0  0  0  0
   -7.4057   -2.7223  -21.5344 C   0  0  0  0  0  0  0  0  0  0  0  0
   -7.4539   -1.3059  -21.2408 N   0  0  0  0  0  0  0  0  0  0  0  0
   -6.6474   -0.7589  -20.2200 C   0  0  0  0  0  0  0  0  0  0  0  0
   -6.9322   -1.0529  -18.9093 C   0  0  0  0  0  0  0  0  0  0  0  0
   -6.2468   -0.5752  -17.8437 N   0  0  0  0  0  0  0  0  0  0  0  0
   -5.2191    0.1991  -18.1014 C   0  0  0  0  0  0  0  0  0  0  0  0
   -4.7764    0.5302  -19.4136 C   0  0  0  0  0  0  0  0  0  0  0  0
   -3.6367    1.3488  -19.6247 C   0  0  0  0  0  0  0  0  0  0  0  0
   -3.1997    1.6162  -20.8906 C   0  0  0  0  0  0  0  0  0  0  0  0
   -3.8743    1.0678  -22.0054 C   0  0  0  0  0  0  0  0  0  0  0  0
   -4.9838    0.2801  -21.8305 C   0  0  0  0  0  0  0  0  0  0  0  0
   -5.4822    0.0160  -20.5225 C   0  0  0  0  0  0  0  0  0  0  0  0
   -5.4761   -0.1483  -22.7006 H   0  0  0  0  0  0  0  0  0  0  0  0
   -3.5149    1.2807  -23.0072 H   0  0  0  0  0  0  0  0  0  0  0  0
   -2.3298    2.2480  -21.0467 H   0  0  0  0  0  0  0  0  0  0  0  0
   -3.1302    1.7513  -18.7513 H   0  0  0  0  0  0  0  0  0  0  0  0
   -4.6726    0.5995  -17.2481 H   0  0  0  0  0  0  0  0  0  0  0  0
   -7.7785   -1.7018  -18.6847 H   0  0  0  0  0  0  0  0  0  0  0  0
   -8.2204   -0.5615  -22.1193 C   0  0  0  0  0  0  0  0  0  0  0  0
   -8.4113    0.6306  -22.0238 O   0  0  0  0  0  0  0  0  0  0  0  0
   -8.7356   -1.5420  -23.2119 C   0  0  1  0  0  0  0  0  0  0  0  0
   -7.8219   -1.4487  -24.4645 C   0  0  0  0  0  0  0  0  0  0  0  0
   -7.9799   -0.1661  -25.1277 N   0  0  0  0  0  0  0  0  0  0  0  0
   -6.8508    0.6215  -25.5756 C   0  0  0  0  0  0  0  0  0  0  0  0
   -6.5989    1.8010  -24.7274 C   0  0  0  0  0  0  0  0  0  0  0  0
   -6.3447    2.7392  -24.0990 N   0  0  0  0  0  0  0  0  0  0  0  0
   -5.9526   -0.0013  -25.5860 H   0  0  0  0  0  0  0  0  0  0  0  0
   -7.0542    0.9742  -26.5914 H   0  0  0  0  0  0  0  0  0  0  0  0
   -9.2240    0.2977  -25.4668 C   0  0  0  0  0  0  0  0  0  0  0  0
   -9.3884    1.1807  -26.2975 O   0  0  0  0  0  0  0  0  0  0  0  0
  -10.3622   -0.3289  -24.7301 C   0  0  0  0  0  0  0  0  0  0  0  0
  -11.6516    0.0044  -25.1448 C   0  0  0  0  0  0  0  0  0  0  0  0
  -12.7539   -0.4507  -24.4511 C   0  0  0  0  0  0  0  0  0  0  0  0
  -12.5320   -1.3238  -23.3935 C   0  0  0  0  0  0  0  0  0  0  0  0
  -13.5951   -1.7941  -22.7182 F   0  0  0  0  0  0  0  0  0  0  0  0
  -11.2705   -1.7386  -23.0192 C   0  0  0  0  0  0  0  0  0  0  0  0
  -10.1444   -1.2146  -23.6661 C   0  0  0  0  0  0  0  0  0  0  0  0
  -11.2016   -2.4610  -22.2140 H   0  0  0  0  0  0  0  0  0  0  0  0
  -13.7614   -0.1303  -24.6918 H   0  0  0  0  0  0  0  0  0  0  0  0
  -11.7440    0.6201  -26.0320 H   0  0  0  0  0  0  0  0  0  0  0  0
   -8.0777   -2.2658  -25.1590 H   0  0  0  0  0  0  0  0  0  0  0  0
   -6.7697   -1.5568  -24.1815 H   0  0  0  0  0  0  0  0  0  0  0  0
   -6.4388   -3.0225  -21.9679 H   0  0  0  0  0  0  0  0  0  0  0  0
   -7.5364   -3.2837  -20.6111 H   0  0  0  0  0  0  0  0  0  0  0  0
   -9.4514   -3.0508  -21.8710 H   0  0  0  0  0  0  0  0  0  0  0  0
   -8.4519   -5.0449  -22.8644 H   0  0  0  0  0  0  0  0  0  0  0  0
   -9.2521   -4.1235  -24.1611 H   0  0  0  0  0  0  0  0  0  0  0  0
   -7.4890   -4.0619  -23.9843 H   0  0  0  0  0  0  0  0  0  0  0  0
  1  2  1  0
  2  3  1  0
  3  4  1  0
  4  5  1  0
  5  6  2  0
  6  7  1  0
  7  8  2  0
  8  9  1  0
  9 10  2  0
 10 11  1  0
 11 12  2  0
 12 13  1  0
 13 14  2  0
 13 15  1  0
 12 16  1  0
 11 17  1  0
 10 18  1  0
  8 19  1  0
  6 20  1  0
  4 21  1  0
 21 22  2  0
 21 23  1  0
 23 24  1  6
 24 25  1  0
 25 26  1  0
 26 27  1  0
 27 28  3  0
 26 29  1  0
 26 30  1  0
 25 31  1  0
 31 32  2  0
 31 33  1  0
 33 34  2  0
 34 35  1  0
 35 36  2  0
 36 37  1  0
 36 38  1  0
 38 39  2  0
 38 40  1  0
 35 41  1  0
 34 42  1  0
 24 43  1  0
 24 44  1  0
  3 45  1  0
  3 46  1  0
  2 47  1  1
  1 48  1  0
  1 49  1  0
  1 50  1  0
 23  2  1  0
 39 33  1  0
 14  5  1  0
 39 23  1  0
 14  9  1  0
M  END
>  <cnnaffinities>  (69) 
[6.18738, 5.88968, 6.07287, 6.15793, 5.64929, 6.39716]

>  <score>  (69) 
6.18738

>  <index>  (69) 
71

>  <Smiles>  (69) 
C([C@]1(C(N(c2c(nc(c3c(c(c(c(c23)[H])[H])[H])[H])[H])[H])C(=O)[C@]21C(N(C(C#N)([H])[H])C(=O)c1c(c(c(F)c(c21)[H])[H])[H])([H])[H])([H])[H])[H])([H])([H])[H]

>  <h>  (69) 
<NA>

>  <Training>  (69) 
True

>  <Success>  (69) 
True

>  <enamine_searched>  (69) 
False

>  <enamine_id>  (69) 
nan

$$$$

     RDKit          3D

 41 44  0  0  0  0  0  0  0  0999 V2000
   -5.8564   -3.2961  -21.2681 O   0  0  0  0  0  0  0  0  0  0  0  0
   -6.6995   -2.6981  -21.9101 C   0  0  0  0  0  0  0  0  0  0  0  0
   -7.3975   -1.4605  -21.2839 C   0  0  0  0  0  0  0  0  0  0  0  0
   -6.5775   -0.8286  -20.1813 C   0  0  0  0  0  0  0  0  0  0  0  0
   -6.8706   -1.0468  -18.8572 C   0  0  0  0  0  0  0  0  0  0  0  0
   -6.1882   -0.5422  -17.7923 N   0  0  0  0  0  0  0  0  0  0  0  0
   -5.1582    0.2249  -18.0606 C   0  0  0  0  0  0  0  0  0  0  0  0
   -4.7217    0.5334  -19.3798 C   0  0  0  0  0  0  0  0  0  0  0  0
   -3.5932    1.3610  -19.6209 C   0  0  0  0  0  0  0  0  0  0  0  0
   -3.1938    1.6391  -20.9014 C   0  0  0  0  0  0  0  0  0  0  0  0
   -3.9074    1.0975  -21.9934 C   0  0  0  0  0  0  0  0  0  0  0  0
   -5.0032    0.2963  -21.7853 C   0  0  0  0  0  0  0  0  0  0  0  0
   -5.4452   -0.0077  -20.4698 C   0  0  0  0  0  0  0  0  0  0  0  0
   -5.5315   -0.1123  -22.6405 H   0  0  0  0  0  0  0  0  0  0  0  0
   -3.5862    1.3195  -23.0058 H   0  0  0  0  0  0  0  0  0  0  0  0
   -2.3331    2.2752  -21.0889 H   0  0  0  0  0  0  0  0  0  0  0  0
   -3.0542    1.7742  -18.7718 H   0  0  0  0  0  0  0  0  0  0  0  0
   -4.6005    0.6303  -17.2151 H   0  0  0  0  0  0  0  0  0  0  0  0
   -7.7203   -1.6712  -18.5875 H   0  0  0  0  0  0  0  0  0  0  0  0
   -8.3445   -1.8172  -20.8550 H   0  0  0  0  0  0  0  0  0  0  0  0
   -7.6799   -0.7097  -22.0309 H   0  0  0  0  0  0  0  0  0  0  0  0
   -7.0742   -3.1345  -23.1679 N   0  0  0  0  0  0  0  0  0  0  0  0
   -7.0064   -4.5604  -23.4826 C   0  0  0  0  0  0  0  0  0  0  0  0
   -8.3362   -5.1358  -23.9839 C   0  0  0  0  0  0  0  0  0  0  0  0
   -9.5586   -4.6330  -23.2135 C   0  0  0  0  0  0  0  0  0  0  0  0
   -9.9891   -3.2320  -23.5700 C   0  0  0  0  0  0  0  0  0  0  0  0
  -11.6561   -2.7591  -23.4898 S   0  0  0  0  0  0  0  0  0  0  0  0
  -11.2816   -1.1541  -23.9873 C   0  0  0  0  0  0  0  0  0  0  0  0
   -9.9484   -0.9947  -24.2193 C   0  0  0  0  0  0  0  0  0  0  0  0
   -9.2070   -2.1893  -23.9797 C   0  0  0  0  0  0  0  0  0  0  0  0
   -7.7188   -2.2922  -24.1468 C   0  0  0  0  0  0  0  0  0  0  0  0
   -7.2788   -1.2919  -24.1360 H   0  0  0  0  0  0  0  0  0  0  0  0
   -7.4879   -2.6802  -25.1445 H   0  0  0  0  0  0  0  0  0  0  0  0
   -9.4882   -0.0613  -24.5394 H   0  0  0  0  0  0  0  0  0  0  0  0
  -12.0548   -0.4064  -24.0809 H   0  0  0  0  0  0  0  0  0  0  0  0
   -9.3451   -4.6659  -22.1383 H   0  0  0  0  0  0  0  0  0  0  0  0
  -10.4018   -5.3025  -23.3772 H   0  0  0  0  0  0  0  0  0  0  0  0
   -8.2872   -6.2307  -23.9240 H   0  0  0  0  0  0  0  0  0  0  0  0
   -8.4775   -4.9222  -25.0473 H   0  0  0  0  0  0  0  0  0  0  0  0
   -6.2257   -4.7376  -24.2311 H   0  0  0  0  0  0  0  0  0  0  0  0
   -6.7031   -5.0777  -22.5729 H   0  0  0  0  0  0  0  0  0  0  0  0
  1  2  2  0
  2  3  1  0
  3  4  1  0
  4  5  2  0
  5  6  1  0
  6  7  2  0
  7  8  1  0
  8  9  2  0
  9 10  1  0
 10 11  2  0
 11 12  1  0
 12 13  2  0
 12 14  1  0
 11 15  1  0
 10 16  1  0
  9 17  1  0
  7 18  1  0
  5 19  1  0
  3 20  1  0
  3 21  1  0
  2 22  1  0
 22 23  1  0
 23 24  1  0
 24 25  1  0
 25 26  1  0
 26 27  1  0
 27 28  1  0
 28 29  2  0
 29 30  1  0
 30 31  1  0
 31 32  1  0
 31 33  1  0
 29 34  1  0
 28 35  1  0
 25 36  1  0
 25 37  1  0
 24 38  1  0
 24 39  1  0
 23 40  1  0
 23 41  1  0
 13  4  1  0
 31 22  1  0
 13  8  1  0
 30 26  2  0
M  END
>  <cnnaffinities>  (70) 
[5.40211, 5.52978, 5.36164, 5.29442, 5.2584, 5.27277]

>  <score>  (70) 
5.40211

>  <index>  (70) 
72

>  <Smiles>  (70) 
O=C(C(c1c(nc(c2c(c(c(c(c12)[H])[H])[H])[H])[H])[H])([H])[H])N1C(C(C(c2sc(c(c2C1([H])[H])[H])[H])([H])[H])([H])[H])([H])[H]

>  <h>  (70) 
<NA>

>  <Training>  (70) 
True

>  <Success>  (70) 
True

>  <enamine_searched>  (70) 
False

>  <enamine_id>  (70) 
nan

$$$$

     RDKit          3D

 50 53  0  0  0  0  0  0  0  0999 V2000
   -5.6022   -3.0340  -21.5740 O   0  0  0  0  0  0  0  0  0  0  0  0
   -6.7565   -2.7537  -21.8605 C   0  0  0  0  0  0  0  0  0  0  0  0
   -7.4140   -1.4790  -21.2686 C   0  0  0  0  0  0  0  0  0  0  0  0
   -6.5813   -0.8307  -20.1833 C   0  0  0  0  0  0  0  0  0  0  0  0
   -6.8727   -1.0450  -18.8615 C   0  0  0  0  0  0  0  0  0  0  0  0
   -6.1885   -0.5439  -17.7974 N   0  0  0  0  0  0  0  0  0  0  0  0
   -5.1599    0.2240  -18.0637 C   0  0  0  0  0  0  0  0  0  0  0  0
   -4.7226    0.5307  -19.3811 C   0  0  0  0  0  0  0  0  0  0  0  0
   -3.5935    1.3576  -19.6208 C   0  0  0  0  0  0  0  0  0  0  0  0
   -3.1898    1.6333  -20.8994 C   0  0  0  0  0  0  0  0  0  0  0  0
   -3.9018    1.0885  -21.9920 C   0  0  0  0  0  0  0  0  0  0  0  0
   -4.9993    0.2881  -21.7859 C   0  0  0  0  0  0  0  0  0  0  0  0
   -5.4455   -0.0131  -20.4736 C   0  0  0  0  0  0  0  0  0  0  0  0
   -5.5220   -0.1350  -22.6374 H   0  0  0  0  0  0  0  0  0  0  0  0
   -3.5755    1.3068  -23.0041 H   0  0  0  0  0  0  0  0  0  0  0  0
   -2.3275    2.2694  -21.0861 H   0  0  0  0  0  0  0  0  0  0  0  0
   -3.0571    1.7727  -18.7690 H   0  0  0  0  0  0  0  0  0  0  0  0
   -4.6035    0.6290  -17.2153 H   0  0  0  0  0  0  0  0  0  0  0  0
   -7.7191   -1.6691  -18.5841 H   0  0  0  0  0  0  0  0  0  0  0  0
   -7.6146   -0.7489  -22.0653 H   0  0  0  0  0  0  0  0  0  0  0  0
   -8.3950   -1.7469  -20.8488 H   0  0  0  0  0  0  0  0  0  0  0  0
   -7.5192   -3.5816  -22.6611 N   0  0  0  0  0  0  0  0  0  0  0  0
   -8.6623   -3.1220  -23.4503 C   0  0  0  0  0  0  0  0  0  0  0  0
   -9.7305   -4.1954  -23.5642 C   0  0  0  0  0  0  0  0  0  0  0  0
   -9.1432   -5.4837  -24.1103 C   0  0  0  0  0  0  0  0  0  0  0  0
   -7.9765   -5.9309  -23.2450 C   0  0  0  0  0  0  0  0  0  0  0  0
   -6.9079   -4.8497  -23.1016 C   0  0  1  0  0  0  0  0  0  0  0  0
   -6.0412   -4.6954  -24.3698 C   0  0  0  0  0  0  0  0  0  0  0  0
   -5.2070   -5.9193  -24.6889 C   0  0  0  0  0  0  0  0  0  0  0  0
   -4.0465   -6.1878  -23.9585 C   0  0  0  0  0  0  0  0  0  0  0  0
   -3.2839   -7.3197  -24.2204 C   0  0  0  0  0  0  0  0  0  0  0  0
   -3.6704   -8.2107  -25.2175 C   0  0  0  0  0  0  0  0  0  0  0  0
   -4.8272   -7.9606  -25.9496 C   0  0  0  0  0  0  0  0  0  0  0  0
   -5.5852   -6.8241  -25.6833 C   0  0  0  0  0  0  0  0  0  0  0  0
   -6.4942   -6.6405  -26.2528 H   0  0  0  0  0  0  0  0  0  0  0  0
   -5.1412   -8.6460  -26.7316 H   0  0  0  0  0  0  0  0  0  0  0  0
   -3.0717   -9.0918  -25.4252 H   0  0  0  0  0  0  0  0  0  0  0  0
   -2.3833   -7.5102  -23.6429 H   0  0  0  0  0  0  0  0  0  0  0  0
   -3.7434   -5.4987  -23.1730 H   0  0  0  0  0  0  0  0  0  0  0  0
   -6.6848   -4.4567  -25.2235 H   0  0  0  0  0  0  0  0  0  0  0  0
   -5.3815   -3.8365  -24.2149 H   0  0  0  0  0  0  0  0  0  0  0  0
   -6.2382   -5.1518  -22.2975 H   0  0  0  0  0  0  0  0  0  0  0  0
   -8.3331   -6.1841  -22.2448 H   0  0  0  0  0  0  0  0  0  0  0  0
   -7.5384   -6.8527  -23.6393 H   0  0  0  0  0  0  0  0  0  0  0  0
   -9.9036   -6.2550  -24.1670 H   0  0  0  0  0  0  0  0  0  0  0  0
   -8.8253   -5.3625  -25.1516 H   0  0  0  0  0  0  0  0  0  0  0  0
  -10.1650   -4.3767  -22.5779 H   0  0  0  0  0  0  0  0  0  0  0  0
  -10.5505   -3.8488  -24.1993 H   0  0  0  0  0  0  0  0  0  0  0  0
   -9.0845   -2.2301  -22.9914 H   0  0  0  0  0  0  0  0  0  0  0  0
   -8.3551   -2.8293  -24.4650 H   0  0  0  0  0  0  0  0  0  0  0  0
  1  2  2  0
  2  3  1  0
  3  4  1  0
  4  5  2  0
  5  6  1  0
  6  7  2  0
  7  8  1  0
  8  9  2  0
  9 10  1  0
 10 11  2  0
 11 12  1  0
 12 13  2  0
 12 14  1  0
 11 15  1  0
 10 16  1  0
  9 17  1  0
  7 18  1  0
  5 19  1  0
  3 20  1  0
  3 21  1  0
  2 22  1  0
 22 23  1  0
 23 24  1  0
 24 25  1  0
 25 26  1  0
 26 27  1  0
 27 28  1  0
 28 29  1  0
 29 30  2  0
 30 31  1  0
 31 32  2  0
 32 33  1  0
 33 34  2  0
 34 35  1  0
 33 36  1  0
 32 37  1  0
 31 38  1  0
 30 39  1  0
 28 40  1  0
 28 41  1  0
 27 42  1  1
 26 43  1  0
 26 44  1  0
 25 45  1  0
 25 46  1  0
 24 47  1  0
 24 48  1  0
 23 49  1  0
 23 50  1  0
 13  4  1  0
 27 22  1  0
 34 29  1  0
 13  8  1  0
M  END
>  <cnnaffinities>  (71) 
[5.6527]

>  <score>  (71) 
5.6527

>  <index>  (71) 
73

>  <Smiles>  (71) 
O=C(C(c1c(nc(c2c(c(c(c(c12)[H])[H])[H])[H])[H])[H])([H])[H])N1C(C(C(C([C@]1(C(c1c(c(c(c(c1[H])[H])[H])[H])[H])([H])[H])[H])([H])[H])([H])[H])([H])[H])([H])[H]

>  <h>  (71) 
<NA>

>  <Training>  (71) 
True

>  <Success>  (71) 
True

>  <enamine_searched>  (71) 
False

>  <enamine_id>  (71) 
nan

$$$$

     RDKit          3D

 43 47  0  0  0  0  0  0  0  0999 V2000
   -9.1891   -0.4076  -20.8747 O   0  0  0  0  0  0  0  0  0  0  0  0
   -8.6337   -1.3716  -21.3427 C   0  0  0  0  0  0  0  0  0  0  0  0
   -9.0936   -2.4129  -22.1005 N   0  0  0  0  0  0  0  0  0  0  0  0
   -8.0177   -3.1488  -22.7440 C   0  0  1  0  0  0  0  0  0  0  0  0
   -8.1058   -4.6895  -22.7170 C   0  0  0  0  0  0  0  0  0  0  0  0
   -8.2248   -4.7230  -24.2736 C   0  0  2  0  0  0  0  0  0  0  0  0
   -7.1768   -5.5234  -24.9854 C   0  0  0  0  0  0  0  0  0  0  0  0
   -5.8213   -5.2770  -24.7394 C   0  0  0  0  0  0  0  0  0  0  0  0
   -4.8278   -6.0083  -25.3803 C   0  0  0  0  0  0  0  0  0  0  0  0
   -5.1757   -7.0072  -26.2881 C   0  0  0  0  0  0  0  0  0  0  0  0
   -6.5155   -7.2658  -26.5495 C   0  0  0  0  0  0  0  0  0  0  0  0
   -7.4979   -6.5329  -25.8948 C   0  0  0  0  0  0  0  0  0  0  0  0
   -9.1644   -6.9205  -26.2484 Cl  0  0  0  0  0  0  0  0  0  0  0  0
   -6.8185   -8.0208  -27.2659 H   0  0  0  0  0  0  0  0  0  0  0  0
   -4.4082   -7.5852  -26.7965 H   0  0  0  0  0  0  0  0  0  0  0  0
   -3.7831   -5.7938  -25.1719 H   0  0  0  0  0  0  0  0  0  0  0  0
   -5.5525   -4.4953  -24.0277 H   0  0  0  0  0  0  0  0  0  0  0  0
   -8.0318   -3.1725  -24.2980 C   0  0  0  0  0  0  0  0  0  0  0  0
   -8.8498   -2.5999  -24.7499 H   0  0  0  0  0  0  0  0  0  0  0  0
   -7.0969   -2.8322  -24.7602 H   0  0  0  0  0  0  0  0  0  0  0  0
   -9.2211   -5.0253  -24.6089 H   0  0  0  0  0  0  0  0  0  0  0  0
   -8.9649   -5.0659  -22.1566 H   0  0  0  0  0  0  0  0  0  0  0  0
   -7.1959   -5.1552  -22.3202 H   0  0  0  0  0  0  0  0  0  0  0  0
   -6.7882   -2.5623  -22.0717 C   0  0  0  0  0  0  0  0  0  0  0  0
   -5.6331   -2.8748  -22.2573 O   0  0  0  0  0  0  0  0  0  0  0  0
   -7.2540   -1.5776  -21.2013 N   0  0  0  0  0  0  0  0  0  0  0  0
   -6.5345   -0.8963  -20.1863 C   0  0  0  0  0  0  0  0  0  0  0  0
   -6.8991   -1.0697  -18.8716 C   0  0  0  0  0  0  0  0  0  0  0  0
   -6.2219   -0.5464  -17.8234 N   0  0  0  0  0  0  0  0  0  0  0  0
   -5.1840    0.2083  -18.0977 C   0  0  0  0  0  0  0  0  0  0  0  0
   -4.7438    0.5260  -19.4103 C   0  0  0  0  0  0  0  0  0  0  0  0
   -3.6189    1.3596  -19.6361 C   0  0  0  0  0  0  0  0  0  0  0  0
   -3.2293    1.6601  -20.9122 C   0  0  0  0  0  0  0  0  0  0  0  0
   -3.9545    1.1480  -22.0096 C   0  0  0  0  0  0  0  0  0  0  0  0
   -5.0462    0.3355  -21.8178 C   0  0  0  0  0  0  0  0  0  0  0  0
   -5.4522   -0.0174  -20.5033 C   0  0  0  0  0  0  0  0  0  0  0  0
   -5.5922   -0.0560  -22.6708 H   0  0  0  0  0  0  0  0  0  0  0  0
   -3.6430    1.3935  -23.0188 H   0  0  0  0  0  0  0  0  0  0  0  0
   -2.3698    2.3019  -21.0870 H   0  0  0  0  0  0  0  0  0  0  0  0
   -3.0896    1.7508  -18.7730 H   0  0  0  0  0  0  0  0  0  0  0  0
   -4.6352    0.6098  -17.2493 H   0  0  0  0  0  0  0  0  0  0  0  0
   -7.7579   -1.6830  -18.6045 H   0  0  0  0  0  0  0  0  0  0  0  0
  -10.0653   -2.5595  -22.3355 H   0  0  0  0  0  0  0  0  0  0  0  0
  1  2  2  0
  2  3  1  0
  4  3  1  1
  4  5  1  0
  5  6  1  0
  6  7  1  0
  7  8  2  0
  8  9  1  0
  9 10  2  0
 10 11  1  0
 11 12  2  0
 12 13  1  0
 11 14  1  0
 10 15  1  0
  9 16  1  0
  8 17  1  0
  6 18  1  0
 18 19  1  0
 18 20  1  0
  6 21  1  1
  5 22  1  0
  5 23  1  0
  4 24  1  0
 24 25  2  0
 24 26  1  0
 26 27  1  0
 27 28  2  0
 28 29  1  0
 29 30  2  0
 30 31  1  0
 31 32  2  0
 32 33  1  0
 33 34  2  0
 34 35  1  0
 35 36  2  0
 35 37  1  0
 34 38  1  0
 33 39  1  0
 32 40  1  0
 30 41  1  0
 28 42  1  0
  3 43  1  0
 26  2  1  0
 36 27  1  0
 18  4  1  0
 36 31  1  0
 12  7  1  0
M  END
>  <cnnaffinities>  (72) 
[5.68908]

>  <score>  (72) 
5.68908

>  <index>  (72) 
74

>  <Smiles>  (72) 
O=C1N([C@]2(C([C@](c3c(c(c(c(c3Cl)[H])[H])[H])[H])(C2([H])[H])[H])([H])[H])C(=O)N1c1c(nc(c2c(c(c(c(c12)[H])[H])[H])[H])[H])[H])[H]

>  <h>  (72) 
<NA>

>  <Training>  (72) 
True

>  <Success>  (72) 
True

>  <enamine_searched>  (72) 
False

>  <enamine_id>  (72) 
nan

$$$$

     RDKit          3D

 66 71  0  0  0  0  0  0  0  0999 V2000
   -6.7992    0.0845  -29.3704 C   0  0  0  0  0  0  0  0  0  0  0  0
   -7.1529    0.6190  -28.0735 N   0  0  0  0  0  0  0  0  0  0  0  0
   -6.6001    0.0594  -26.9690 C   0  0  0  0  0  0  0  0  0  0  0  0
   -5.7945   -0.8611  -27.0096 O   0  0  0  0  0  0  0  0  0  0  0  0
   -7.0989    0.6617  -25.6590 C   0  0  0  0  0  0  0  0  0  0  0  0
   -8.2049   -0.1042  -25.1314 N   0  0  0  0  0  0  0  0  0  0  0  0
   -7.9352   -1.3921  -24.5226 C   0  0  0  0  0  0  0  0  0  0  0  0
   -8.7732   -1.5730  -23.2318 C   0  0  2  0  0  0  0  0  0  0  0  0
   -8.2290   -0.6163  -22.1311 C   0  0  0  0  0  0  0  0  0  0  0  0
   -8.4025    0.5752  -22.0339 O   0  0  0  0  0  0  0  0  0  0  0  0
   -7.4583   -1.3652  -21.2610 N   0  0  0  0  0  0  0  0  0  0  0  0
   -6.6473   -0.8070  -20.2382 C   0  0  0  0  0  0  0  0  0  0  0  0
   -6.9340   -1.0801  -18.9223 C   0  0  0  0  0  0  0  0  0  0  0  0
   -6.2542   -0.5886  -17.8563 N   0  0  0  0  0  0  0  0  0  0  0  0
   -5.2284    0.1882  -18.1129 C   0  0  0  0  0  0  0  0  0  0  0  0
   -4.7817    0.5094  -19.4260 C   0  0  0  0  0  0  0  0  0  0  0  0
   -3.6429    1.3331  -19.6320 C   0  0  0  0  0  0  0  0  0  0  0  0
   -3.2049    1.6053  -20.8982 C   0  0  0  0  0  0  0  0  0  0  0  0
   -3.8776    1.0598  -22.0142 C   0  0  0  0  0  0  0  0  0  0  0  0
   -4.9871    0.2686  -21.8409 C   0  0  0  0  0  0  0  0  0  0  0  0
   -5.4870   -0.0135  -20.5348 C   0  0  0  0  0  0  0  0  0  0  0  0
   -5.4858   -0.1443  -22.7144 H   0  0  0  0  0  0  0  0  0  0  0  0
   -3.5114    1.2694  -23.0150 H   0  0  0  0  0  0  0  0  0  0  0  0
   -2.3386    2.2408  -21.0541 H   0  0  0  0  0  0  0  0  0  0  0  0
   -3.1389    1.7408  -18.7585 H   0  0  0  0  0  0  0  0  0  0  0  0
   -4.6779    0.5946  -17.2633 H   0  0  0  0  0  0  0  0  0  0  0  0
   -7.7834   -1.7193  -18.6868 H   0  0  0  0  0  0  0  0  0  0  0  0
   -7.4025   -2.7710  -21.5963 C   0  0  0  0  0  0  0  0  0  0  0  0
   -8.5537   -2.9619  -22.5825 C   0  0  2  0  0  0  0  0  0  0  0  0
   -8.3370   -4.1307  -23.5340 C   0  0  0  0  0  0  0  0  0  0  0  0
   -9.4666   -4.3395  -24.3987 N   0  0  0  0  0  0  0  0  0  0  0  0
   -9.4685   -5.2597  -25.4023 C   0  0  0  0  0  0  0  0  0  0  0  0
   -8.3889   -6.1550  -25.6144 C   0  0  0  0  0  0  0  0  0  0  0  0
   -8.3849   -7.0386  -26.5969 N   0  0  0  0  0  0  0  0  0  0  0  0
   -9.4668   -7.0546  -27.3809 C   0  0  0  0  0  0  0  0  0  0  0  0
  -10.5286   -6.1875  -27.1657 C   0  0  0  0  0  0  0  0  0  0  0  0
  -10.5476   -5.2862  -26.1856 N   0  0  0  0  0  0  0  0  0  0  0  0
  -11.4057   -6.2023  -27.8060 H   0  0  0  0  0  0  0  0  0  0  0  0
   -9.4744   -7.7698  -28.1959 H   0  0  0  0  0  0  0  0  0  0  0  0
   -7.5125   -6.1487  -24.9748 H   0  0  0  0  0  0  0  0  0  0  0  0
  -10.2608   -3.7124  -24.3939 H   0  0  0  0  0  0  0  0  0  0  0  0
   -8.1617   -5.0441  -22.9547 H   0  0  0  0  0  0  0  0  0  0  0  0
   -7.4287   -3.9532  -24.1313 H   0  0  0  0  0  0  0  0  0  0  0  0
   -9.4456   -3.1892  -21.9968 H   0  0  0  0  0  0  0  0  0  0  0  0
   -6.4343   -3.0544  -22.0336 H   0  0  0  0  0  0  0  0  0  0  0  0
   -7.5327   -3.3599  -20.6932 H   0  0  0  0  0  0  0  0  0  0  0  0
  -10.2176   -1.2943  -23.5928 C   0  0  0  0  0  0  0  0  0  0  0  0
  -11.2696   -1.7958  -22.8152 C   0  0  0  0  0  0  0  0  0  0  0  0
  -12.5660   -1.3860  -23.0623 C   0  0  0  0  0  0  0  0  0  0  0  0
  -13.8152   -1.9005  -21.9669 Cl  0  0  0  0  0  0  0  0  0  0  0  0
  -12.8939   -0.5600  -24.1374 C   0  0  0  0  0  0  0  0  0  0  0  0
  -11.8655   -0.1082  -24.9410 C   0  0  0  0  0  0  0  0  0  0  0  0
  -10.5417   -0.4289  -24.6505 C   0  0  0  0  0  0  0  0  0  0  0  0
   -9.4776    0.2699  -25.4354 C   0  0  0  0  0  0  0  0  0  0  0  0
   -9.7243    1.1453  -26.2663 O   0  0  0  0  0  0  0  0  0  0  0  0
  -12.0470    0.5289  -25.7973 H   0  0  0  0  0  0  0  0  0  0  0  0
  -13.9262   -0.2691  -24.3141 H   0  0  0  0  0  0  0  0  0  0  0  0
  -11.1042   -2.4834  -21.9911 H   0  0  0  0  0  0  0  0  0  0  0  0
   -8.1664   -2.2049  -25.2289 H   0  0  0  0  0  0  0  0  0  0  0  0
   -6.8628   -1.4511  -24.3101 H   0  0  0  0  0  0  0  0  0  0  0  0
   -7.4383    1.6935  -25.7977 H   0  0  0  0  0  0  0  0  0  0  0  0
   -6.2867    0.6336  -24.9269 H   0  0  0  0  0  0  0  0  0  0  0  0
   -7.9970    1.1668  -27.9621 H   0  0  0  0  0  0  0  0  0  0  0  0
   -7.3313    0.6330  -30.1492 H   0  0  0  0  0  0  0  0  0  0  0  0
   -5.7229    0.1984  -29.5293 H   0  0  0  0  0  0  0  0  0  0  0  0
   -7.0462   -0.9816  -29.4372 H   0  0  0  0  0  0  0  0  0  0  0  0
  1  2  1  0
  2  3  1  0
  3  4  2  0
  3  5  1  0
  5  6  1  0
  6  7  1  0
  8  7  1  6
  8  9  1  0
  9 10  2  0
  9 11  1  0
 11 12  1  0
 12 13  2  0
 13 14  1  0
 14 15  2  0
 15 16  1  0
 16 17  2  0
 17 18  1  0
 18 19  2  0
 19 20  1  0
 20 21  2  0
 20 22  1  0
 19 23  1  0
 18 24  1  0
 17 25  1  0
 15 26  1  0
 13 27  1  0
 11 28  1  0
 28 29  1  0
 29 30  1  0
 30 31  1  0
 31 32  1  0
 32 33  2  0
 33 34  1  0
 34 35  2  0
 35 36  1  0
 36 37  2  0
 36 38  1  0
 35 39  1  0
 33 40  1  0
 31 41  1  0
 30 42  1  0
 30 43  1  0
 29 44  1  1
 28 45  1  0
 28 46  1  0
  8 47  1  0
 47 48  2  0
 48 49  1  0
 49 50  1  0
 49 51  2  0
 51 52  1  0
 52 53  2  0
 53 54  1  0
 54 55  2  0
 52 56  1  0
 51 57  1  0
 48 58  1  0
  7 59  1  0
  7 60  1  0
  5 61  1  0
  5 62  1  0
  2 63  1  0
  1 64  1  0
  1 65  1  0
  1 66  1  0
 54  6  1  0
 29  8  1  0
 37 32  1  0
 53 47  1  0
 21 12  1  0
 21 16  1  0
M  END
>  <cnnaffinities>  (73) 
[6.93006, 6.44576, 7.06977]

>  <score>  (73) 
6.93006

>  <index>  (73) 
75

>  <Smiles>  (73) 
C(N(C(=O)C(N1C([C@@]2(C(=O)N(c3c(nc(c4c(c(c(c(c34)[H])[H])[H])[H])[H])[H])C([C@@]2(C(N(c2c(nc(c(n2)[H])[H])[H])[H])([H])[H])[H])([H])[H])c2c(c(Cl)c(c(c2C1=O)[H])[H])[H])([H])[H])([H])[H])[H])([H])([H])[H]

>  <h>  (73) 
<NA>

>  <Training>  (73) 
True

>  <Success>  (73) 
True

>  <enamine_searched>  (73) 
False

>  <enamine_id>  (73) 
nan

$$$$

     RDKit          3D

 66 71  0  0  0  0  0  0  0  0999 V2000
   -7.9686   -3.6797  -23.9991 C   0  0  0  0  0  0  0  0  0  0  0  0
   -8.2945   -2.8301  -22.7782 C   0  0  1  0  0  0  0  0  0  0  0  0
   -7.1275   -2.5903  -21.8143 C   0  0  0  0  0  0  0  0  0  0  0  0
   -7.4791   -1.3303  -21.1809 N   0  0  0  0  0  0  0  0  0  0  0  0
   -6.6627   -0.7681  -20.1641 C   0  0  0  0  0  0  0  0  0  0  0  0
   -6.9390   -1.0406  -18.8504 C   0  0  0  0  0  0  0  0  0  0  0  0
   -6.2320   -0.5593  -17.7981 N   0  0  0  0  0  0  0  0  0  0  0  0
   -5.2073    0.2115  -18.0758 C   0  0  0  0  0  0  0  0  0  0  0  0
   -4.7878    0.5459  -19.3951 C   0  0  0  0  0  0  0  0  0  0  0  0
   -3.6596    1.3760  -19.6294 C   0  0  0  0  0  0  0  0  0  0  0  0
   -3.2491    1.6473  -20.9047 C   0  0  0  0  0  0  0  0  0  0  0  0
   -3.9434    1.0986  -22.0066 C   0  0  0  0  0  0  0  0  0  0  0  0
   -5.0426    0.2967  -21.8041 C   0  0  0  0  0  0  0  0  0  0  0  0
   -5.5128    0.0184  -20.4877 C   0  0  0  0  0  0  0  0  0  0  0  0
   -5.5427   -0.1333  -22.6678 H   0  0  0  0  0  0  0  0  0  0  0  0
   -3.6011    1.3094  -23.0155 H   0  0  0  0  0  0  0  0  0  0  0  0
   -2.3822    2.2788  -21.0766 H   0  0  0  0  0  0  0  0  0  0  0  0
   -3.1376    1.7786  -18.7649 H   0  0  0  0  0  0  0  0  0  0  0  0
   -4.6405    0.6103  -17.2346 H   0  0  0  0  0  0  0  0  0  0  0  0
   -7.7856   -1.6806  -18.6092 H   0  0  0  0  0  0  0  0  0  0  0  0
   -8.3972   -0.5776  -21.8840 C   0  0  0  0  0  0  0  0  0  0  0  0
   -8.7237    0.5595  -21.5966 O   0  0  0  0  0  0  0  0  0  0  0  0
   -8.8594   -1.4124  -23.1040 C   0  0  1  0  0  0  0  0  0  0  0  0
   -8.2168   -0.8116  -24.3806 C   0  0  0  0  0  0  0  0  0  0  0  0
   -8.8831    0.4245  -24.7634 N   0  0  0  0  0  0  0  0  0  0  0  0
   -8.0642    1.5199  -25.2490 C   0  0  0  0  0  0  0  0  0  0  0  0
   -7.3708    2.2923  -24.1265 C   0  0  0  0  0  0  0  0  0  0  0  0
   -8.2749    3.1460  -23.2833 N   0  0  0  0  0  4  0  0  0  0  0  0
   -8.8628    4.2874  -24.0904 C   0  0  0  0  0  0  0  0  0  0  0  0
   -9.2165    5.4828  -23.2205 C   0  0  0  0  0  0  0  0  0  0  0  0
   -8.0995    6.0427  -22.5527 O   0  0  0  0  0  0  0  0  0  0  0  0
   -7.0729    5.1206  -22.2293 C   0  0  0  0  0  0  0  0  0  0  0  0
   -7.5728    3.6910  -22.0485 C   0  0  0  0  0  0  0  0  0  0  0  0
   -6.7395    3.0258  -21.8042 H   0  0  0  0  0  0  0  0  0  0  0  0
   -8.2800    3.6536  -21.2193 H   0  0  0  0  0  0  0  0  0  0  0  0
   -6.6313    5.4621  -21.2860 H   0  0  0  0  0  0  0  0  0  0  0  0
   -6.2890    5.1554  -23.0031 H   0  0  0  0  0  0  0  0  0  0  0  0
   -9.6268    6.2737  -23.8586 H   0  0  0  0  0  0  0  0  0  0  0  0
   -9.9900    5.2027  -22.4886 H   0  0  0  0  0  0  0  0  0  0  0  0
   -9.7578    3.9359  -24.6110 H   0  0  0  0  0  0  0  0  0  0  0  0
   -8.1245    4.5963  -24.8414 H   0  0  0  0  0  0  0  0  0  0  0  0
   -9.0295    2.5304  -22.9277 H   0  0  0  0  0  0  0  0  0  0  0  0
   -6.8794    1.5796  -23.4616 H   0  0  0  0  0  0  0  0  0  0  0  0
   -6.5962    2.9256  -24.5757 H   0  0  0  0  0  0  0  0  0  0  0  0
   -8.7143    2.1602  -25.8464 H   0  0  0  0  0  0  0  0  0  0  0  0
   -7.2917    1.1107  -25.9163 H   0  0  0  0  0  0  0  0  0  0  0  0
  -10.2190    0.3717  -25.0763 C   0  0  0  0  0  0  0  0  0  0  0  0
  -10.7460    1.0538  -25.9433 O   0  0  0  0  0  0  0  0  0  0  0  0
  -11.0019   -0.5678  -24.2036 C   0  0  0  0  0  0  0  0  0  0  0  0
  -12.3918   -0.5025  -24.2737 C   0  0  0  0  0  0  0  0  0  0  0  0
  -13.1749   -1.1868  -23.3629 C   0  0  0  0  0  0  0  0  0  0  0  0
  -12.5479   -1.9751  -22.3963 C   0  0  0  0  0  0  0  0  0  0  0  0
  -13.4946   -2.8681  -21.2333 Cl  0  0  0  0  0  0  0  0  0  0  0  0
  -11.1728   -2.1000  -22.3621 C   0  0  0  0  0  0  0  0  0  0  0  0
  -10.3672   -1.3762  -23.2539 C   0  0  0  0  0  0  0  0  0  0  0  0
  -10.7482   -2.7753  -21.6316 H   0  0  0  0  0  0  0  0  0  0  0  0
  -14.2529   -1.0926  -23.3813 H   0  0  0  0  0  0  0  0  0  0  0  0
  -12.8115    0.1101  -25.0648 H   0  0  0  0  0  0  0  0  0  0  0  0
   -7.1538   -0.6022  -24.2078 H   0  0  0  0  0  0  0  0  0  0  0  0
   -8.2864   -1.5470  -25.1991 H   0  0  0  0  0  0  0  0  0  0  0  0
   -7.0326   -3.3823  -21.0643 H   0  0  0  0  0  0  0  0  0  0  0  0
   -6.1627   -2.5289  -22.3413 H   0  0  0  0  0  0  0  0  0  0  0  0
   -9.0558   -3.3635  -22.2034 H   0  0  0  0  0  0  0  0  0  0  0  0
   -7.6850   -4.6964  -23.7159 H   0  0  0  0  0  0  0  0  0  0  0  0
   -8.8484   -3.7346  -24.6508 H   0  0  0  0  0  0  0  0  0  0  0  0
   -7.1435   -3.2436  -24.5739 H   0  0  0  0  0  0  0  0  0  0  0  0
  1  2  1  0
  2  3  1  0
  3  4  1  0
  4  5  1  0
  5  6  2  0
  6  7  1  0
  7  8  2  0
  8  9  1  0
  9 10  2  0
 10 11  1  0
 11 12  2  0
 12 13  1  0
 13 14  2  0
 13 15  1  0
 12 16  1  0
 11 17  1  0
 10 18  1  0
  8 19  1  0
  6 20  1  0
  4 21  1  0
 21 22  2  0
 21 23  1  0
 23 24  1  6
 24 25  1  0
 25 26  1  0
 26 27  1  0
 27 28  1  0
 28 29  1  0
 29 30  1  0
 30 31  1  0
 31 32  1  0
 32 33  1  0
 33 34  1  0
 33 35  1  0
 32 36  1  0
 32 37  1  0
 30 38  1  0
 30 39  1  0
 29 40  1  0
 29 41  1  0
 28 42  1  0
 27 43  1  0
 27 44  1  0
 26 45  1  0
 26 46  1  0
 25 47  1  0
 47 48  2  0
 47 49  1  0
 49 50  2  0
 50 51  1  0
 51 52  2  0
 52 53  1  0
 52 54  1  0
 54 55  2  0
 54 56  1  0
 51 57  1  0
 50 58  1  0
 24 59  1  0
 24 60  1  0
  3 61  1  0
  3 62  1  0
  2 63  1  1
  1 64  1  0
  1 65  1  0
  1 66  1  0
 23  2  1  0
 33 28  1  0
 55 49  1  0
 14  5  1  0
 55 23  1  0
 14  9  1  0
M  CHG  1  28   1
M  END
>  <cnnaffinities>  (74) 
[6.93987, 6.92842]

>  <score>  (74) 
6.93987

>  <index>  (74) 
76

>  <Smiles>  (74) 
C([C@]1(C(N(c2c(nc(c3c(c(c(c(c23)[H])[H])[H])[H])[H])[H])C(=O)[C@]21C(N(C(C([N+]1(C(C(OC(C1([H])[H])([H])[H])([H])[H])([H])[H])[H])([H])[H])([H])[H])C(=O)c1c(c(c(Cl)c(c21)[H])[H])[H])([H])[H])([H])[H])[H])([H])([H])[H]

>  <h>  (74) 
<NA>

>  <Training>  (74) 
True

>  <Success>  (74) 
True

>  <enamine_searched>  (74) 
False

>  <enamine_id>  (74) 
nan

$$$$

     RDKit          3D

 55 60  0  0  0  0  0  0  0  0999 V2000
  -10.2072   -1.0311  -23.6668 C   0  0  0  0  0  0  0  0  0  0  0  0
   -8.8515   -1.3485  -23.0428 C   0  0  1  0  0  0  0  0  0  0  0  0
   -8.3951   -0.4142  -21.9080 C   0  0  0  0  0  0  0  0  0  0  0  0
   -7.3950   -1.2134  -21.2191 N   0  0  0  0  0  0  0  0  0  0  0  0
   -6.5895   -0.7439  -20.1548 C   0  0  0  0  0  0  0  0  0  0  0  0
   -6.8835   -1.0474  -18.8529 C   0  0  0  0  0  0  0  0  0  0  0  0
   -6.2131   -0.5381  -17.7862 N   0  0  0  0  0  0  0  0  0  0  0  0
   -5.2011    0.2639  -18.0276 C   0  0  0  0  0  0  0  0  0  0  0  0
   -4.7474    0.5998  -19.3387 C   0  0  0  0  0  0  0  0  0  0  0  0
   -3.6105    1.4138  -19.5851 C   0  0  0  0  0  0  0  0  0  0  0  0
   -3.1934    1.6532  -20.8669 C   0  0  0  0  0  0  0  0  0  0  0  0
   -3.8840    1.0975  -21.9659 C   0  0  0  0  0  0  0  0  0  0  0  0
   -4.9948    0.3215  -21.7587 C   0  0  0  0  0  0  0  0  0  0  0  0
   -5.4531    0.0691  -20.4402 C   0  0  0  0  0  0  0  0  0  0  0  0
   -5.5170   -0.1298  -22.5953 H   0  0  0  0  0  0  0  0  0  0  0  0
   -3.5377    1.2799  -22.9787 H   0  0  0  0  0  0  0  0  0  0  0  0
   -2.3237    2.2759  -21.0559 H   0  0  0  0  0  0  0  0  0  0  0  0
   -3.0819    1.8435  -18.7400 H   0  0  0  0  0  0  0  0  0  0  0  0
   -4.6696    0.6674  -17.1621 H   0  0  0  0  0  0  0  0  0  0  0  0
   -7.7047   -1.7254  -18.6216 H   0  0  0  0  0  0  0  0  0  0  0  0
   -7.5072   -2.5618  -21.4753 C   0  0  0  0  0  0  0  0  0  0  0  0
   -6.7832   -3.4083  -20.9971 O   0  0  0  0  0  0  0  0  0  0  0  0
   -8.6909   -2.7804  -22.4248 C   0  0  1  0  0  0  0  0  0  0  0  0
   -9.9110   -3.1989  -21.5429 C   0  0  0  0  0  0  0  0  0  0  0  0
  -11.0530   -3.6637  -22.3154 N   0  0  0  0  0  0  0  0  0  0  0  0
  -12.4105   -3.6381  -21.7647 C   0  0  0  0  0  0  0  0  0  0  0  0
  -13.2869   -2.5096  -22.2235 C   0  0  0  0  0  0  0  0  0  0  0  0
  -14.0585   -1.6829  -21.4797 C   0  0  0  0  0  0  0  0  0  0  0  0
  -14.7688   -0.8841  -22.3297 O   0  0  0  0  0  0  0  0  0  0  0  0
  -14.3699   -1.2635  -23.5572 C   0  0  0  0  0  0  0  0  0  0  0  0
  -13.5152   -2.2331  -23.5651 N   0  0  0  0  0  0  0  0  0  0  0  0
  -14.8116   -0.7472  -24.3998 H   0  0  0  0  0  0  0  0  0  0  0  0
  -14.2105   -1.5246  -20.4190 H   0  0  0  0  0  0  0  0  0  0  0  0
  -12.8848   -4.5670  -22.0921 H   0  0  0  0  0  0  0  0  0  0  0  0
  -12.3953   -3.6376  -20.6732 H   0  0  0  0  0  0  0  0  0  0  0  0
  -10.8363   -4.5282  -23.3501 C   0  0  0  0  0  0  0  0  0  0  0  0
  -11.7287   -5.1884  -23.8346 O   0  0  0  0  0  0  0  0  0  0  0  0
   -9.4532   -4.6628  -23.8807 C   0  0  0  0  0  0  0  0  0  0  0  0
   -9.2642   -5.6525  -24.8402 C   0  0  0  0  0  0  0  0  0  0  0  0
   -8.0240   -5.8708  -25.3948 C   0  0  0  0  0  0  0  0  0  0  0  0
   -6.9781   -5.0604  -24.9681 C   0  0  0  0  0  0  0  0  0  0  0  0
   -5.7647   -5.2777  -25.5018 F   0  0  0  0  0  0  0  0  0  0  0  0
   -7.1365   -4.0717  -24.0122 C   0  0  0  0  0  0  0  0  0  0  0  0
   -8.4051   -3.8588  -23.4457 C   0  0  0  0  0  0  0  0  0  0  0  0
   -6.2658   -3.5038  -23.7034 H   0  0  0  0  0  0  0  0  0  0  0  0
   -7.8550   -6.6498  -26.1298 H   0  0  0  0  0  0  0  0  0  0  0  0
  -10.1341   -6.2370  -25.1168 H   0  0  0  0  0  0  0  0  0  0  0  0
  -10.2595   -2.3398  -20.9667 H   0  0  0  0  0  0  0  0  0  0  0  0
   -9.5682   -3.9778  -20.8455 H   0  0  0  0  0  0  0  0  0  0  0  0
   -9.2220   -0.1733  -21.2242 H   0  0  0  0  0  0  0  0  0  0  0  0
   -7.9632    0.5257  -22.2697 H   0  0  0  0  0  0  0  0  0  0  0  0
   -8.1013   -1.2833  -23.8450 H   0  0  0  0  0  0  0  0  0  0  0  0
  -11.0318   -1.1127  -22.9516 H   0  0  0  0  0  0  0  0  0  0  0  0
  -10.4104   -1.7230  -24.4907 H   0  0  0  0  0  0  0  0  0  0  0  0
  -10.2169   -0.0214  -24.0863 H   0  0  0  0  0  0  0  0  0  0  0  0
  1  2  1  0
  2  3  1  0
  3  4  1  0
  4  5  1  0
  5  6  2  0
  6  7  1  0
  7  8  2  0
  8  9  1  0
  9 10  2  0
 10 11  1  0
 11 12  2  0
 12 13  1  0
 13 14  2  0
 13 15  1  0
 12 16  1  0
 11 17  1  0
 10 18  1  0
  8 19  1  0
  6 20  1  0
  4 21  1  0
 21 22  2  0
 21 23  1  0
 23 24  1  1
 24 25  1  0
 25 26  1  0
 26 27  1  0
 27 28  2  0
 28 29  1  0
 29 30  1  0
 30 31  2  0
 30 32  1  0
 28 33  1  0
 26 34  1  0
 26 35  1  0
 25 36  1  0
 36 37  2  0
 36 38  1  0
 38 39  2  0
 39 40  1  0
 40 41  2  0
 41 42  1  0
 41 43  1  0
 43 44  2  0
 43 45  1  0
 40 46  1  0
 39 47  1  0
 24 48  1  0
 24 49  1  0
  3 50  1  0
  3 51  1  0
  2 52  1  6
  1 53  1  0
  1 54  1  0
  1 55  1  0
 23  2  1  0
 31 27  1  0
 44 38  1  0
 14  5  1  0
 44 23  1  0
 14  9  1  0
M  END
>  <cnnaffinities>  (75) 
[6.72081]

>  <score>  (75) 
6.72081

>  <index>  (75) 
77

>  <Smiles>  (75) 
C([C@]1(C(N(c2c(nc(c3c(c(c(c(c23)[H])[H])[H])[H])[H])[H])C(=O)[C@]21C(N(C(c1c(oc(n1)[H])[H])([H])[H])C(=O)c1c(c(c(F)c(c21)[H])[H])[H])([H])[H])([H])[H])[H])([H])([H])[H]

>  <h>  (75) 
<NA>

>  <Training>  (75) 
True

>  <Success>  (75) 
True

>  <enamine_searched>  (75) 
False

>  <enamine_id>  (75) 
nan

$$$$

     RDKit          3D

 56 60  0  0  0  0  0  0  0  0999 V2000
   -8.2023    4.5064  -24.1049 C   0  0  0  0  0  0  0  0  0  0  0  0
   -8.2413    3.3286  -24.9461 N   0  0  0  0  0  0  0  0  0  0  0  0
   -7.4188    2.2842  -24.6625 C   0  0  0  0  0  0  0  0  0  0  0  0
   -6.5708    2.3205  -23.7863 O   0  0  0  0  0  0  0  0  0  0  0  0
   -7.6296    1.0544  -25.5465 C   0  0  0  0  0  0  0  0  0  0  0  0
   -8.5529    0.1182  -24.9284 N   0  0  0  0  0  0  0  0  0  0  0  0
   -8.0834   -1.1546  -24.4036 C   0  0  0  0  0  0  0  0  0  0  0  0
   -8.8352   -1.5549  -23.1024 C   0  0  2  0  0  0  0  0  0  0  0  0
   -8.3702   -0.6576  -21.9216 C   0  0  0  0  0  0  0  0  0  0  0  0
   -8.7184    0.4682  -21.6438 O   0  0  0  0  0  0  0  0  0  0  0  0
   -7.4293   -1.3735  -21.2095 N   0  0  0  0  0  0  0  0  0  0  0  0
   -6.6350   -0.8012  -20.1905 C   0  0  0  0  0  0  0  0  0  0  0  0
   -6.9256   -1.0759  -18.8796 C   0  0  0  0  0  0  0  0  0  0  0  0
   -6.2416   -0.5838  -17.8182 N   0  0  0  0  0  0  0  0  0  0  0  0
   -5.2168    0.1907  -18.0845 C   0  0  0  0  0  0  0  0  0  0  0  0
   -4.7764    0.5143  -19.3987 C   0  0  0  0  0  0  0  0  0  0  0  0
   -3.6392    1.3343  -19.6192 C   0  0  0  0  0  0  0  0  0  0  0  0
   -3.2175    1.6078  -20.8881 C   0  0  0  0  0  0  0  0  0  0  0  0
   -3.9155    1.0827  -21.9992 C   0  0  0  0  0  0  0  0  0  0  0  0
   -5.0257    0.2951  -21.8143 C   0  0  0  0  0  0  0  0  0  0  0  0
   -5.4894   -0.0029  -20.5027 C   0  0  0  0  0  0  0  0  0  0  0  0
   -5.5626   -0.0780  -22.6835 H   0  0  0  0  0  0  0  0  0  0  0  0
   -3.5831    1.3181  -23.0053 H   0  0  0  0  0  0  0  0  0  0  0  0
   -2.3442    2.2329  -21.0495 H   0  0  0  0  0  0  0  0  0  0  0  0
   -3.1253    1.7339  -18.7488 H   0  0  0  0  0  0  0  0  0  0  0  0
   -4.6696    0.6030  -17.2376 H   0  0  0  0  0  0  0  0  0  0  0  0
   -7.7702   -1.7254  -18.6532 H   0  0  0  0  0  0  0  0  0  0  0  0
   -7.2065   -2.7245  -21.6696 C   0  0  0  0  0  0  0  0  0  0  0  0
   -8.3895   -2.9655  -22.6126 C   0  0  2  0  0  0  0  0  0  0  0  0
   -8.1019   -3.9892  -23.7011 C   0  0  0  0  0  0  0  0  0  0  0  0
   -8.9486   -4.0608  -24.3936 H   0  0  0  0  0  0  0  0  0  0  0  0
   -7.9211   -4.9735  -23.2574 H   0  0  0  0  0  0  0  0  0  0  0  0
   -7.2106   -3.7057  -24.2755 H   0  0  0  0  0  0  0  0  0  0  0  0
   -9.1964   -3.3519  -21.9865 H   0  0  0  0  0  0  0  0  0  0  0  0
   -7.2036   -3.4187  -20.8238 H   0  0  0  0  0  0  0  0  0  0  0  0
   -6.2352   -2.8328  -22.1780 H   0  0  0  0  0  0  0  0  0  0  0  0
  -10.3220   -1.4110  -23.3665 C   0  0  0  0  0  0  0  0  0  0  0  0
  -11.2594   -2.0840  -22.5759 C   0  0  0  0  0  0  0  0  0  0  0  0
  -12.6108   -1.8558  -22.7452 C   0  0  0  0  0  0  0  0  0  0  0  0
  -13.7091   -2.6390  -21.6493 Cl  0  0  0  0  0  0  0  0  0  0  0  0
  -13.0980   -1.0317  -23.7605 C   0  0  0  0  0  0  0  0  0  0  0  0
  -12.1786   -0.3843  -24.5630 C   0  0  0  0  0  0  0  0  0  0  0  0
  -10.8094   -0.5294  -24.3407 C   0  0  0  0  0  0  0  0  0  0  0  0
   -9.8791    0.3743  -25.0816 C   0  0  0  0  0  0  0  0  0  0  0  0
  -10.2800    1.3294  -25.7550 O   0  0  0  0  0  0  0  0  0  0  0  0
  -12.4914    0.2296  -25.4001 H   0  0  0  0  0  0  0  0  0  0  0  0
  -14.1624   -0.8820  -23.8984 H   0  0  0  0  0  0  0  0  0  0  0  0
  -10.9672   -2.7942  -21.8138 H   0  0  0  0  0  0  0  0  0  0  0  0
   -8.2330   -1.9438  -25.1569 H   0  0  0  0  0  0  0  0  0  0  0  0
   -7.0081   -1.0581  -24.2084 H   0  0  0  0  0  0  0  0  0  0  0  0
   -6.6764    0.5475  -25.7040 H   0  0  0  0  0  0  0  0  0  0  0  0
   -8.0314    1.3618  -26.5151 H   0  0  0  0  0  0  0  0  0  0  0  0
   -9.0901    3.0953  -25.4364 H   0  0  0  0  0  0  0  0  0  0  0  0
   -8.8549    5.2624  -24.5443 H   0  0  0  0  0  0  0  0  0  0  0  0
   -7.1802    4.8918  -24.0660 H   0  0  0  0  0  0  0  0  0  0  0  0
   -8.5323    4.2782  -23.0848 H   0  0  0  0  0  0  0  0  0  0  0  0
  1  2  1  0
  2  3  1  0
  3  4  2  0
  3  5  1  0
  5  6  1  0
  6  7  1  0
  8  7  1  6
  8  9  1  0
  9 10  2  0
  9 11  1  0
 11 12  1  0
 12 13  2  0
 13 14  1  0
 14 15  2  0
 15 16  1  0
 16 17  2  0
 17 18  1  0
 18 19  2  0
 19 20  1  0
 20 21  2  0
 20 22  1  0
 19 23  1  0
 18 24  1  0
 17 25  1  0
 15 26  1  0
 13 27  1  0
 11 28  1  0
 28 29  1  0
 29 30  1  0
 30 31  1  0
 30 32  1  0
 30 33  1  0
 29 34  1  1
 28 35  1  0
 28 36  1  0
  8 37  1  0
 37 38  2  0
 38 39  1  0
 39 40  1  0
 39 41  2  0
 41 42  1  0
 42 43  2  0
 43 44  1  0
 44 45  2  0
 42 46  1  0
 41 47  1  0
 38 48  1  0
  7 49  1  0
  7 50  1  0
  5 51  1  0
  5 52  1  0
  2 53  1  0
  1 54  1  0
  1 55  1  0
  1 56  1  0
 44  6  1  0
 29  8  1  0
 43 37  1  0
 21 12  1  0
 21 16  1  0
M  END
>  <cnnaffinities>  (76) 
[6.73998, 6.34653]

>  <score>  (76) 
6.73998

>  <index>  (76) 
78

>  <Smiles>  (76) 
C(N(C(=O)C(N1C([C@@]2(C(=O)N(c3c(nc(c4c(c(c(c(c34)[H])[H])[H])[H])[H])[H])C([C@@]2(C([H])([H])[H])[H])([H])[H])c2c(c(Cl)c(c(c2C1=O)[H])[H])[H])([H])[H])([H])[H])[H])([H])([H])[H]

>  <h>  (76) 
<NA>

>  <Training>  (76) 
True

>  <Success>  (76) 
True

>  <enamine_searched>  (76) 
False

>  <enamine_id>  (76) 
nan

$$$$

     RDKit          3D

 45 49  0  0  0  0  0  0  0  0999 V2000
   -9.9445   -0.6415  -23.6016 C   0  0  0  0  0  0  0  0  0  0  0  0
   -8.9224   -1.1730  -22.7213 N   0  0  0  0  0  0  0  0  0  0  0  0
   -8.3335   -0.3724  -21.7782 C   0  0  0  0  0  0  0  0  0  0  0  0
   -8.5480    0.7946  -21.5489 O   0  0  0  0  0  0  0  0  0  0  0  0
   -7.3972   -1.1854  -21.1177 N   0  0  0  0  0  0  0  0  0  0  0  0
   -6.5630   -0.7004  -20.0856 C   0  0  0  0  0  0  0  0  0  0  0  0
   -6.8884   -0.9457  -18.7805 C   0  0  0  0  0  0  0  0  0  0  0  0
   -6.2086   -0.4379  -17.7237 N   0  0  0  0  0  0  0  0  0  0  0  0
   -5.1722    0.3275  -17.9792 C   0  0  0  0  0  0  0  0  0  0  0  0
   -4.6978    0.6139  -19.2965 C   0  0  0  0  0  0  0  0  0  0  0  0
   -3.5565    1.4273  -19.5440 C   0  0  0  0  0  0  0  0  0  0  0  0
   -3.1399    1.6521  -20.8276 C   0  0  0  0  0  0  0  0  0  0  0  0
   -3.8366    1.0965  -21.9259 C   0  0  0  0  0  0  0  0  0  0  0  0
   -4.9490    0.3185  -21.7178 C   0  0  0  0  0  0  0  0  0  0  0  0
   -5.4083    0.0747  -20.3923 C   0  0  0  0  0  0  0  0  0  0  0  0
   -5.4846   -0.1108  -22.5604 H   0  0  0  0  0  0  0  0  0  0  0  0
   -3.4981    1.2926  -22.9395 H   0  0  0  0  0  0  0  0  0  0  0  0
   -2.2636    2.2665  -21.0218 H   0  0  0  0  0  0  0  0  0  0  0  0
   -3.0278    1.8680  -18.7009 H   0  0  0  0  0  0  0  0  0  0  0  0
   -4.6452    0.7457  -17.1179 H   0  0  0  0  0  0  0  0  0  0  0  0
   -7.7484   -1.5710  -18.5530 H   0  0  0  0  0  0  0  0  0  0  0  0
   -7.4933   -2.5183  -21.4860 C   0  0  0  0  0  0  0  0  0  0  0  0
   -6.8252   -3.4314  -21.0656 O   0  0  0  0  0  0  0  0  0  0  0  0
   -8.6328   -2.5701  -22.4903 C   0  0  0  0  0  0  0  0  0  0  0  0
   -9.7566   -3.5322  -22.0296 C   0  0  0  0  0  0  0  0  0  0  0  0
   -9.5475   -4.3650  -23.2395 N   0  0  0  0  0  0  0  0  0  0  0  0
  -10.8922   -4.3329  -24.2660 S   0  0  0  0  0  0  0  0  0  0  0  0
  -12.0321   -4.7340  -23.4610 O   0  0  0  0  0  0  0  0  0  0  0  0
  -10.9283   -3.0870  -25.0238 O   0  0  0  0  0  0  0  0  0  0  0  0
  -10.3849   -5.6267  -25.3641 C   0  0  0  0  0  0  0  0  0  0  0  0
  -11.2265   -6.1114  -26.5116 C   0  0  0  0  0  0  0  0  0  0  0  0
  -10.0605   -5.2219  -26.7701 C   0  0  0  0  0  0  0  0  0  0  0  0
   -9.1543   -5.6235  -27.1997 H   0  0  0  0  0  0  0  0  0  0  0  0
  -10.2750   -4.1905  -27.0223 H   0  0  0  0  0  0  0  0  0  0  0  0
  -11.1197   -7.1696  -26.7215 H   0  0  0  0  0  0  0  0  0  0  0  0
  -12.2284   -5.7236  -26.6527 H   0  0  0  0  0  0  0  0  0  0  0  0
   -9.7491   -6.3422  -24.8497 H   0  0  0  0  0  0  0  0  0  0  0  0
   -8.4074   -3.5142  -23.6864 C   0  0  0  0  0  0  0  0  0  0  0  0
   -7.4754   -4.0766  -23.6186 H   0  0  0  0  0  0  0  0  0  0  0  0
   -8.5228   -3.0753  -24.6812 H   0  0  0  0  0  0  0  0  0  0  0  0
  -10.7668   -3.1330  -21.9111 H   0  0  0  0  0  0  0  0  0  0  0  0
   -9.4562   -4.0801  -21.1405 H   0  0  0  0  0  0  0  0  0  0  0  0
   -9.7950   -0.9809  -24.6276 H   0  0  0  0  0  0  0  0  0  0  0  0
  -10.9480   -0.9290  -23.2736 H   0  0  0  0  0  0  0  0  0  0  0  0
   -9.8517    0.4418  -23.5505 H   0  0  0  0  0  0  0  0  0  0  0  0
  1  2  1  0
  2  3  1  0
  3  4  2  0
  3  5  1  0
  5  6  1  0
  6  7  2  0
  7  8  1  0
  8  9  2  0
  9 10  1  0
 10 11  2  0
 11 12  1  0
 12 13  2  0
 13 14  1  0
 14 15  2  0
 14 16  1  0
 13 17  1  0
 12 18  1  0
 11 19  1  0
  9 20  1  0
  7 21  1  0
  5 22  1  0
 22 23  2  0
 22 24  1  0
 24 25  1  0
 25 26  1  0
 26 27  1  0
 27 28  2  0
 27 29  2  0
 27 30  1  0
 30 31  1  0
 31 32  1  0
 32 33  1  0
 32 34  1  0
 31 35  1  0
 31 36  1  0
 30 37  1  0
 26 38  1  0
 38 39  1  0
 38 40  1  0
 25 41  1  0
 25 42  1  0
  1 43  1  0
  1 44  1  0
  1 45  1  0
 24  2  1  0
 32 30  1  0
 15  6  1  0
 38 24  1  0
 15 10  1  0
M  END
>  <cnnaffinities>  (77) 
[5.76609, 5.58447, 5.75261, 5.63204, 5.63218, 5.6264, 5.51782, 5.61852]

>  <score>  (77) 
5.76609

>  <index>  (77) 
79

>  <Smiles>  (77) 
C(N1C(=O)N(c2c(nc(c3c(c(c(c(c23)[H])[H])[H])[H])[H])[H])C(=O)C21C(N(S(=O)(=O)C1(C(C1([H])[H])([H])[H])[H])C2([H])[H])([H])[H])([H])([H])[H]

>  <h>  (77) 
<NA>

>  <Training>  (77) 
True

>  <Success>  (77) 
True

>  <enamine_searched>  (77) 
False

>  <enamine_id>  (77) 
nan

$$$$

     RDKit          3D

 60 65  0  0  0  0  0  0  0  0999 V2000
   -6.9505    3.3147  -23.3704 C   0  0  0  0  0  0  0  0  0  0  0  0
   -7.6870    2.3865  -24.2102 N   0  0  0  0  0  0  0  0  0  0  0  0
   -7.0401    1.4136  -24.8846 C   0  0  0  0  0  0  0  0  0  0  0  0
   -5.8213    1.2823  -24.8566 O   0  0  0  0  0  0  0  0  0  0  0  0
   -7.9143    0.5271  -25.7562 C   0  0  0  0  0  0  0  0  0  0  0  0
   -8.9196   -0.2532  -25.0911 N   0  0  0  0  0  0  0  0  0  0  0  0
   -8.4812   -1.4575  -24.4038 C   0  0  0  0  0  0  0  0  0  0  0  0
   -9.1748   -1.6384  -23.0236 C   0  0  2  0  0  0  0  0  0  0  0  0
   -8.5982   -0.6180  -22.0001 C   0  0  0  0  0  0  0  0  0  0  0  0
   -8.9382    0.5331  -21.8334 O   0  0  0  0  0  0  0  0  0  0  0  0
   -7.6046   -1.2593  -21.2811 N   0  0  0  0  0  0  0  0  0  0  0  0
   -6.8223   -0.6724  -20.2532 C   0  0  0  0  0  0  0  0  0  0  0  0
   -7.1113   -0.9590  -18.9407 C   0  0  0  0  0  0  0  0  0  0  0  0
   -6.3943   -0.5217  -17.8772 N   0  0  0  0  0  0  0  0  0  0  0  0
   -5.3373    0.2143  -18.1268 C   0  0  0  0  0  0  0  0  0  0  0  0
   -4.8991    0.5617  -19.4359 C   0  0  0  0  0  0  0  0  0  0  0  0
   -3.7290    1.3374  -19.6560 C   0  0  0  0  0  0  0  0  0  0  0  0
   -3.3017    1.6074  -20.9266 C   0  0  0  0  0  0  0  0  0  0  0  0
   -4.0320    1.1283  -22.0365 C   0  0  0  0  0  0  0  0  0  0  0  0
   -5.1845    0.4045  -21.8515 C   0  0  0  0  0  0  0  0  0  0  0  0
   -5.6510    0.0991  -20.5438 C   0  0  0  0  0  0  0  0  0  0  0  0
   -5.7426    0.0747  -22.7221 H   0  0  0  0  0  0  0  0  0  0  0  0
   -3.7014    1.3394  -23.0483 H   0  0  0  0  0  0  0  0  0  0  0  0
   -2.4005    2.1906  -21.0909 H   0  0  0  0  0  0  0  0  0  0  0  0
   -3.1901    1.7116  -18.7908 H   0  0  0  0  0  0  0  0  0  0  0  0
   -4.7585    0.5643  -17.2714 H   0  0  0  0  0  0  0  0  0  0  0  0
   -7.9722   -1.5859  -18.7054 H   0  0  0  0  0  0  0  0  0  0  0  0
   -7.4212   -2.6459  -21.6498 C   0  0  0  0  0  0  0  0  0  0  0  0
   -8.7416   -2.9657  -22.3490 C   0  0  2  0  0  0  0  0  0  0  0  0
   -8.6997   -4.1915  -23.2447 C   0  0  0  0  0  0  0  0  0  0  0  0
   -7.8917   -4.1125  -23.9836 H   0  0  0  0  0  0  0  0  0  0  0  0
   -9.6467   -4.3007  -23.7855 H   0  0  0  0  0  0  0  0  0  0  0  0
   -8.5264   -5.0949  -22.6533 H   0  0  0  0  0  0  0  0  0  0  0  0
   -9.4648   -3.1268  -21.5446 H   0  0  0  0  0  0  0  0  0  0  0  0
   -7.2566   -3.2596  -20.7608 H   0  0  0  0  0  0  0  0  0  0  0  0
   -6.5505   -2.7956  -22.3131 H   0  0  0  0  0  0  0  0  0  0  0  0
  -10.6732   -1.4978  -23.2364 C   0  0  0  0  0  0  0  0  0  0  0  0
  -11.6088   -2.1413  -22.4094 C   0  0  0  0  0  0  0  0  0  0  0  0
  -12.9624   -2.0008  -22.6467 C   0  0  0  0  0  0  0  0  0  0  0  0
  -14.0873   -2.9387  -21.7001 Cl  0  0  0  0  0  0  0  0  0  0  0  0
  -13.4499   -1.1657  -23.6455 C   0  0  0  0  0  0  0  0  0  0  0  0
  -12.5423   -0.5171  -24.4622 C   0  0  0  0  0  0  0  0  0  0  0  0
  -11.1653   -0.6812  -24.2675 C   0  0  0  0  0  0  0  0  0  0  0  0
  -10.2364    0.1261  -25.1188 C   0  0  0  0  0  0  0  0  0  0  0  0
  -10.6239    1.0835  -25.7779 O   0  0  0  0  0  0  0  0  0  0  0  0
  -12.8971    0.1283  -25.2585 H   0  0  0  0  0  0  0  0  0  0  0  0
  -14.5255   -1.0465  -23.7260 H   0  0  0  0  0  0  0  0  0  0  0  0
  -11.3103   -2.8007  -21.6049 H   0  0  0  0  0  0  0  0  0  0  0  0
   -7.3994   -1.3724  -24.2870 H   0  0  0  0  0  0  0  0  0  0  0  0
   -8.6939   -2.3282  -25.0389 H   0  0  0  0  0  0  0  0  0  0  0  0
   -7.1716   -0.1006  -26.9098 C   0  0  0  0  0  0  0  0  0  0  0  0
   -8.1216    1.0219  -27.1600 C   0  0  0  0  0  0  0  0  0  0  0  0
   -9.0810    0.8031  -27.6129 H   0  0  0  0  0  0  0  0  0  0  0  0
   -7.7150    1.9952  -27.4085 H   0  0  0  0  0  0  0  0  0  0  0  0
   -7.4891   -1.0962  -27.2007 H   0  0  0  0  0  0  0  0  0  0  0  0
   -6.1105    0.1209  -26.9521 H   0  0  0  0  0  0  0  0  0  0  0  0
   -8.6954    2.3451  -24.1682 H   0  0  0  0  0  0  0  0  0  0  0  0
   -6.5311    2.8097  -22.4883 H   0  0  0  0  0  0  0  0  0  0  0  0
   -6.1181    3.7443  -23.9373 H   0  0  0  0  0  0  0  0  0  0  0  0
   -7.6092    4.1247  -23.0502 H   0  0  0  0  0  0  0  0  0  0  0  0
  1  2  1  0
  2  3  1  0
  3  4  2  0
  3  5  1  0
  5  6  1  0
  6  7  1  0
  8  7  1  6
  8  9  1  0
  9 10  2  0
  9 11  1  0
 11 12  1  0
 12 13  2  0
 13 14  1  0
 14 15  2  0
 15 16  1  0
 16 17  2  0
 17 18  1  0
 18 19  2  0
 19 20  1  0
 20 21  2  0
 20 22  1  0
 19 23  1  0
 18 24  1  0
 17 25  1  0
 15 26  1  0
 13 27  1  0
 11 28  1  0
 28 29  1  0
 29 30  1  0
 30 31  1  0
 30 32  1  0
 30 33  1  0
 29 34  1  1
 28 35  1  0
 28 36  1  0
  8 37  1  0
 37 38  2  0
 38 39  1  0
 39 40  1  0
 39 41  2  0
 41 42  1  0
 42 43  2  0
 43 44  1  0
 44 45  2  0
 42 46  1  0
 41 47  1  0
 38 48  1  0
  7 49  1  0
  7 50  1  0
  5 51  1  0
 51 52  1  0
 52 53  1  0
 52 54  1  0
 51 55  1  0
 51 56  1  0
  2 57  1  0
  1 58  1  0
  1 59  1  0
  1 60  1  0
 52  5  1  0
 44  6  1  0
 29  8  1  0
 43 37  1  0
 21 12  1  0
 21 16  1  0
M  END
>  <cnnaffinities>  (78) 
[7.01584]

>  <score>  (78) 
7.01584

>  <index>  (78) 
80

>  <Smiles>  (78) 
C(N(C(=O)C1(N2C([C@@]3(C(=O)N(c4c(nc(c5c(c(c(c(c45)[H])[H])[H])[H])[H])[H])C([C@@]3(C([H])([H])[H])[H])([H])[H])c3c(c(Cl)c(c(c3C2=O)[H])[H])[H])([H])[H])C(C1([H])[H])([H])[H])[H])([H])([H])[H]

>  <h>  (78) 
<NA>

>  <Training>  (78) 
True

>  <Success>  (78) 
True

>  <enamine_searched>  (78) 
False

>  <enamine_id>  (78) 
nan

$$$$

     RDKit          3D

 36 38  0  0  0  0  0  0  0  0999 V2000
   -6.0260   -3.4258  -21.2224 O   0  0  0  0  0  0  0  0  0  0  0  0
   -6.6647   -2.6709  -21.9293 C   0  0  0  0  0  0  0  0  0  0  0  0
   -7.3877   -1.4607  -21.2854 C   0  0  0  0  0  0  0  0  0  0  0  0
   -6.5727   -0.8292  -20.1788 C   0  0  0  0  0  0  0  0  0  0  0  0
   -6.8710   -1.0476  -18.8575 C   0  0  0  0  0  0  0  0  0  0  0  0
   -6.1879   -0.5415  -17.7929 N   0  0  0  0  0  0  0  0  0  0  0  0
   -5.1579    0.2243  -18.0617 C   0  0  0  0  0  0  0  0  0  0  0  0
   -4.7217    0.5353  -19.3782 C   0  0  0  0  0  0  0  0  0  0  0  0
   -3.5938    1.3604  -19.6205 C   0  0  0  0  0  0  0  0  0  0  0  0
   -3.1948    1.6386  -20.9003 C   0  0  0  0  0  0  0  0  0  0  0  0
   -3.9103    1.0967  -21.9930 C   0  0  0  0  0  0  0  0  0  0  0  0
   -5.0053    0.2954  -21.7861 C   0  0  0  0  0  0  0  0  0  0  0  0
   -5.4451   -0.0052  -20.4703 C   0  0  0  0  0  0  0  0  0  0  0  0
   -5.5336   -0.1167  -22.6420 H   0  0  0  0  0  0  0  0  0  0  0  0
   -3.5898    1.3207  -23.0051 H   0  0  0  0  0  0  0  0  0  0  0  0
   -2.3345    2.2755  -21.0883 H   0  0  0  0  0  0  0  0  0  0  0  0
   -3.0566    1.7730  -18.7700 H   0  0  0  0  0  0  0  0  0  0  0  0
   -4.6024    0.6303  -17.2143 H   0  0  0  0  0  0  0  0  0  0  0  0
   -7.7210   -1.6709  -18.5859 H   0  0  0  0  0  0  0  0  0  0  0  0
   -7.6814   -0.7048  -22.0213 H   0  0  0  0  0  0  0  0  0  0  0  0
   -8.3232   -1.8419  -20.8519 H   0  0  0  0  0  0  0  0  0  0  0  0
   -6.7427   -2.8957  -23.2963 N   0  0  0  0  0  0  0  0  0  0  0  0
   -7.6538   -2.1753  -24.1704 C   0  0  0  0  0  0  0  0  0  0  0  0
   -9.1084   -2.5054  -23.9671 C   0  0  0  0  0  0  0  0  0  0  0  0
   -9.5892   -3.7384  -23.7891 C   0  0  0  0  0  0  0  0  0  0  0  0
   -8.8452   -5.0150  -23.7305 C   0  0  0  0  0  0  0  0  0  0  0  0
   -7.5276   -5.2454  -23.7080 C   0  0  0  0  0  0  0  0  0  0  0  0
   -6.4046   -4.2403  -23.7572 C   0  0  0  0  0  0  0  0  0  0  0  0
   -5.5466   -4.6034  -23.1858 H   0  0  0  0  0  0  0  0  0  0  0  0
   -6.0682   -4.1445  -24.7959 H   0  0  0  0  0  0  0  0  0  0  0  0
   -7.1993   -6.2864  -23.6568 H   0  0  0  0  0  0  0  0  0  0  0  0
   -9.4927   -5.8886  -23.7093 H   0  0  0  0  0  0  0  0  0  0  0  0
  -10.6669   -3.8507  -23.6898 H   0  0  0  0  0  0  0  0  0  0  0  0
   -9.8057   -1.6676  -23.9757 H   0  0  0  0  0  0  0  0  0  0  0  0
   -7.4713   -1.0993  -24.0912 H   0  0  0  0  0  0  0  0  0  0  0  0
   -7.3617   -2.4476  -25.1910 H   0  0  0  0  0  0  0  0  0  0  0  0
  1  2  2  0
  2  3  1  0
  3  4  1  0
  4  5  2  0
  5  6  1  0
  6  7  2  0
  7  8  1  0
  8  9  2  0
  9 10  1  0
 10 11  2  0
 11 12  1  0
 12 13  2  0
 12 14  1  0
 11 15  1  0
 10 16  1  0
  9 17  1  0
  7 18  1  0
  5 19  1  0
  3 20  1  0
  3 21  1  0
  2 22  1  0
 22 23  1  0
 23 24  1  0
 24 25  2  0
 25 26  1  0
 26 27  2  0
 27 28  1  0
 28 29  1  0
 28 30  1  0
 27 31  1  0
 26 32  1  0
 25 33  1  0
 24 34  1  0
 23 35  1  0
 23 36  1  0
 13  4  1  0
 28 22  1  0
 13  8  1  0
M  END
>  <cnnaffinities>  (79) 
[5.09561, 5.01238, 4.88426]

>  <score>  (79) 
5.09561

>  <index>  (79) 
81

>  <Smiles>  (79) 
O=C(C(c1c(nc(c2c(c(c(c(c12)[H])[H])[H])[H])[H])[H])([H])[H])N1C(C(=C(C(=C(C1([H])[H])[H])[H])[H])[H])([H])[H]

>  <h>  (79) 
<NA>

>  <Training>  (79) 
True

>  <Success>  (79) 
True

>  <enamine_searched>  (79) 
False

>  <enamine_id>  (79) 
nan

$$$$

     RDKit          3D

 54 57  0  0  0  0  0  0  0  0999 V2000
  -10.7233    0.3780  -25.4254 C   0  0  0  0  0  0  0  0  0  0  0  0
   -9.8355   -0.6018  -24.9303 O   0  0  0  0  0  0  0  0  0  0  0  0
   -8.5005   -0.5213  -25.2213 C   0  0  0  0  0  0  0  0  0  0  0  0
   -7.9447    0.5082  -25.9869 C   0  0  0  0  0  0  0  0  0  0  0  0
   -6.5730    0.5263  -26.2378 C   0  0  0  0  0  0  0  0  0  0  0  0
   -5.7485   -0.4658  -25.7286 C   0  0  0  0  0  0  0  0  0  0  0  0
   -6.3154   -1.4740  -24.9544 C   0  0  0  0  0  0  0  0  0  0  0  0
   -7.6786   -1.5425  -24.6896 C   0  0  0  0  0  0  0  0  0  0  0  0
   -8.2980   -2.6712  -23.8509 C   0  0  1  0  0  0  0  0  0  0  0  0
   -9.1404   -3.6543  -24.6923 C   0  0  0  0  0  0  0  0  0  0  0  0
   -8.4102   -4.8647  -25.2725 C   0  0  1  0  0  0  0  0  0  0  0  0
   -7.5085   -4.5376  -26.4626 C   0  0  0  0  0  0  0  0  0  0  0  0
   -6.6828   -3.8746  -26.1904 H   0  0  0  0  0  0  0  0  0  0  0  0
   -7.0750   -5.4493  -26.8902 H   0  0  0  0  0  0  0  0  0  0  0  0
   -8.0719   -4.0326  -27.2544 H   0  0  0  0  0  0  0  0  0  0  0  0
   -7.6721   -5.5498  -24.1298 C   0  0  0  0  0  0  0  0  0  0  0  0
   -6.7090   -4.6181  -23.4097 C   0  0  0  0  0  0  0  0  0  0  0  0
   -7.3486   -3.3691  -22.9693 N   0  0  0  0  0  0  0  0  0  0  0  0
   -6.7433   -2.7416  -21.8866 C   0  0  0  0  0  0  0  0  0  0  0  0
   -5.7306   -3.1983  -21.3857 O   0  0  0  0  0  0  0  0  0  0  0  0
   -7.4013   -1.4735  -21.2822 C   0  0  0  0  0  0  0  0  0  0  0  0
   -6.5767   -0.8347  -20.1843 C   0  0  0  0  0  0  0  0  0  0  0  0
   -6.8713   -1.0488  -18.8630 C   0  0  0  0  0  0  0  0  0  0  0  0
   -6.1895   -0.5433  -17.7970 N   0  0  0  0  0  0  0  0  0  0  0  0
   -5.1601    0.2233  -18.0643 C   0  0  0  0  0  0  0  0  0  0  0  0
   -4.7222    0.5308  -19.3800 C   0  0  0  0  0  0  0  0  0  0  0  0
   -3.5949    1.3571  -19.6224 C   0  0  0  0  0  0  0  0  0  0  0  0
   -3.1944    1.6343  -20.9002 C   0  0  0  0  0  0  0  0  0  0  0  0
   -3.9078    1.0912  -21.9931 C   0  0  0  0  0  0  0  0  0  0  0  0
   -5.0040    0.2877  -21.7894 C   0  0  0  0  0  0  0  0  0  0  0  0
   -5.4453   -0.0138  -20.4758 C   0  0  0  0  0  0  0  0  0  0  0  0
   -5.5360   -0.1236  -22.6459 H   0  0  0  0  0  0  0  0  0  0  0  0
   -3.5848    1.3148  -23.0056 H   0  0  0  0  0  0  0  0  0  0  0  0
   -2.3321    2.2725  -21.0875 H   0  0  0  0  0  0  0  0  0  0  0  0
   -3.0583    1.7718  -18.7699 H   0  0  0  0  0  0  0  0  0  0  0  0
   -4.6046    0.6296  -17.2143 H   0  0  0  0  0  0  0  0  0  0  0  0
   -7.7200   -1.6718  -18.5852 H   0  0  0  0  0  0  0  0  0  0  0  0
   -7.6264   -0.7386  -22.0675 H   0  0  0  0  0  0  0  0  0  0  0  0
   -8.3718   -1.7757  -20.8624 H   0  0  0  0  0  0  0  0  0  0  0  0
   -6.3142   -5.1117  -22.5203 H   0  0  0  0  0  0  0  0  0  0  0  0
   -5.8294   -4.4354  -24.0460 H   0  0  0  0  0  0  0  0  0  0  0  0
   -8.4005   -5.9325  -23.4096 H   0  0  0  0  0  0  0  0  0  0  0  0
   -7.1267   -6.4211  -24.5078 H   0  0  0  0  0  0  0  0  0  0  0  0
   -9.1796   -5.5591  -25.6453 H   0  0  0  0  0  0  0  0  0  0  0  0
   -9.6150   -3.0913  -25.4969 H   0  0  0  0  0  0  0  0  0  0  0  0
   -9.9594   -4.0198  -24.0611 H   0  0  0  0  0  0  0  0  0  0  0  0
   -9.0163   -2.1788  -23.1897 H   0  0  0  0  0  0  0  0  0  0  0  0
   -5.6636   -2.2473  -24.5648 H   0  0  0  0  0  0  0  0  0  0  0  0
   -4.6753   -0.4615  -25.9134 H   0  0  0  0  0  0  0  0  0  0  0  0
   -6.1413    1.3281  -26.8283 H   0  0  0  0  0  0  0  0  0  0  0  0
   -8.5692    1.3016  -26.3914 H   0  0  0  0  0  0  0  0  0  0  0  0
  -11.7023    0.1089  -25.0300 H   0  0  0  0  0  0  0  0  0  0  0  0
  -10.7986    0.4129  -26.5173 H   0  0  0  0  0  0  0  0  0  0  0  0
  -10.4665    1.3968  -25.1131 H   0  0  0  0  0  0  0  0  0  0  0  0
  1  2  1  0
  2  3  1  0
  3  4  2  0
  4  5  1  0
  5  6  2  0
  6  7  1  0
  7  8  2  0
  8  9  1  0
  9 10  1  0
 10 11  1  0
 11 12  1  0
 12 13  1  0
 12 14  1  0
 12 15  1  0
 11 16  1  0
 16 17  1  0
 17 18  1  0
 18 19  1  0
 19 20  2  0
 19 21  1  0
 21 22  1  0
 22 23  2  0
 23 24  1  0
 24 25  2  0
 25 26  1  0
 26 27  2  0
 27 28  1  0
 28 29  2  0
 29 30  1  0
 30 31  2  0
 30 32  1  0
 29 33  1  0
 28 34  1  0
 27 35  1  0
 25 36  1  0
 23 37  1  0
 21 38  1  0
 21 39  1  0
 17 40  1  0
 17 41  1  0
 16 42  1  0
 16 43  1  0
 11 44  1  6
 10 45  1  0
 10 46  1  0
  9 47  1  1
  7 48  1  0
  6 49  1  0
  5 50  1  0
  4 51  1  0
  1 52  1  0
  1 53  1  0
  1 54  1  0
  8  3  1  0
 18  9  1  0
 31 22  1  0
 31 26  1  0
M  END
>  <cnnaffinities>  (80) 
[5.78848]

>  <score>  (80) 
5.78848

>  <index>  (80) 
82

>  <Smiles>  (80) 
C(Oc1c(c(c(c(c1[C@]1(C([C@@](C([H])([H])[H])(C(C(N1C(=O)C(c1c(nc(c2c(c(c(c(c12)[H])[H])[H])[H])[H])[H])([H])[H])([H])[H])([H])[H])[H])([H])[H])[H])[H])[H])[H])[H])([H])([H])[H]

>  <h>  (80) 
<NA>

>  <Training>  (80) 
True

>  <Success>  (80) 
True

>  <enamine_searched>  (80) 
False

>  <enamine_id>  (80) 
nan

$$$$

     RDKit          3D

 46 50  0  0  0  0  0  0  0  0999 V2000
   -3.6214   -1.0062  -25.4593 N   0  0  0  0  0  0  0  0  0  0  0  0
   -4.5399   -2.0040  -26.4107 S   0  0  0  0  0  0  0  0  0  0  0  0
   -4.2919   -3.3418  -25.8933 O   0  0  0  0  0  0  0  0  0  0  0  0
   -4.2745   -1.6402  -27.7882 O   0  0  0  0  0  0  0  0  0  0  0  0
   -6.2284   -1.5734  -26.0950 C   0  0  0  0  0  0  0  0  0  0  0  0
   -6.9807   -0.9819  -27.1113 C   0  0  0  0  0  0  0  0  0  0  0  0
   -8.2972   -0.6398  -26.8576 C   0  0  0  0  0  0  0  0  0  0  0  0
   -8.8465   -0.8933  -25.5968 C   0  0  0  0  0  0  0  0  0  0  0  0
   -8.0847   -1.4830  -24.5778 C   0  0  0  0  0  0  0  0  0  0  0  0
   -6.7630   -1.8260  -24.8399 C   0  0  0  0  0  0  0  0  0  0  0  0
   -6.1643   -2.2999  -24.0613 H   0  0  0  0  0  0  0  0  0  0  0  0
   -8.6619   -1.7307  -23.1936 C   0  0  1  0  0  0  0  0  0  0  0  0
  -10.1926   -1.7094  -23.2918 C   0  0  0  0  0  0  0  0  0  0  0  0
  -10.5946   -0.4801  -24.0884 C   0  0  0  0  0  0  0  0  0  0  0  0
  -10.1637   -0.5924  -25.4428 O   0  0  0  0  0  0  0  0  0  0  0  0
  -10.0865    0.3781  -23.6420 H   0  0  0  0  0  0  0  0  0  0  0  0
  -11.6756   -0.3146  -24.1334 H   0  0  0  0  0  0  0  0  0  0  0  0
  -10.6211   -1.7375  -22.2866 H   0  0  0  0  0  0  0  0  0  0  0  0
  -10.4942   -2.6176  -23.8202 H   0  0  0  0  0  0  0  0  0  0  0  0
   -8.1787   -2.9563  -22.5860 N   0  0  0  0  0  0  0  0  0  0  0  0
   -7.3293   -2.7697  -21.5362 C   0  0  0  0  0  0  0  0  0  0  0  0
   -6.6079   -3.5711  -20.9884 O   0  0  0  0  0  0  0  0  0  0  0  0
   -7.4005   -1.3996  -21.2254 N   0  0  0  0  0  0  0  0  0  0  0  0
   -6.6084   -0.8144  -20.2036 C   0  0  0  0  0  0  0  0  0  0  0  0
   -6.9176   -1.0660  -18.8903 C   0  0  0  0  0  0  0  0  0  0  0  0
   -6.2345   -0.5609  -17.8332 N   0  0  0  0  0  0  0  0  0  0  0  0
   -5.2027    0.2039  -18.1010 C   0  0  0  0  0  0  0  0  0  0  0  0
   -4.7546    0.5108  -19.4192 C   0  0  0  0  0  0  0  0  0  0  0  0
   -3.6161    1.3317  -19.6420 C   0  0  0  0  0  0  0  0  0  0  0  0
   -3.1898    1.5928  -20.9164 C   0  0  0  0  0  0  0  0  0  0  0  0
   -3.8731    1.0382  -22.0255 C   0  0  0  0  0  0  0  0  0  0  0  0
   -4.9802    0.2469  -21.8392 C   0  0  0  0  0  0  0  0  0  0  0  0
   -5.4626   -0.0183  -20.5188 C   0  0  0  0  0  0  0  0  0  0  0  0
   -5.5028   -0.1691  -22.7010 H   0  0  0  0  0  0  0  0  0  0  0  0
   -3.5248    1.2561  -23.0348 H   0  0  0  0  0  0  0  0  0  0  0  0
   -2.3299    2.2360  -21.0835 H   0  0  0  0  0  0  0  0  0  0  0  0
   -3.1086    1.7475  -18.7750 H   0  0  0  0  0  0  0  0  0  0  0  0
   -4.6529    0.6187  -17.2548 H   0  0  0  0  0  0  0  0  0  0  0  0
   -7.7648   -1.7072  -18.6589 H   0  0  0  0  0  0  0  0  0  0  0  0
   -8.1320   -0.6974  -22.1786 C   0  0  0  0  0  0  0  0  0  0  0  0
   -8.2807    0.5001  -22.1922 O   0  0  0  0  0  0  0  0  0  0  0  0
   -8.3543   -3.8757  -22.9554 H   0  0  0  0  0  0  0  0  0  0  0  0
   -8.9257   -0.1658  -27.6061 H   0  0  0  0  0  0  0  0  0  0  0  0
   -6.5133   -0.8034  -28.0767 H   0  0  0  0  0  0  0  0  0  0  0  0
   -3.7521   -0.0148  -25.6321 H   0  0  0  0  0  0  0  0  0  0  0  0
   -3.7213   -1.2293  -24.4718 H   0  0  0  0  0  0  0  0  0  0  0  0
  1  2  1  0
  2  3  2  0
  2  4  2  0
  2  5  1  0
  5  6  2  0
  6  7  1  0
  7  8  2  0
  8  9  1  0
  9 10  2  0
 10 11  1  0
  9 12  1  0
 12 13  1  0
 13 14  1  0
 14 15  1  0
 14 16  1  0
 14 17  1  0
 13 18  1  0
 13 19  1  0
 12 20  1  1
 20 21  1  0
 21 22  2  0
 21 23  1  0
 23 24  1  0
 24 25  2  0
 25 26  1  0
 26 27  2  0
 27 28  1  0
 28 29  2  0
 29 30  1  0
 30 31  2  0
 31 32  1  0
 32 33  2  0
 32 34  1  0
 31 35  1  0
 30 36  1  0
 29 37  1  0
 27 38  1  0
 25 39  1  0
 23 40  1  0
 40 41  2  0
 20 42  1  0
  7 43  1  0
  6 44  1  0
  1 45  1  0
  1 46  1  0
 10  5  1  0
 40 12  1  0
 15  8  1  0
 33 24  1  0
 33 28  1  0
M  END
>  <cnnaffinities>  (81) 
[5.38764]

>  <score>  (81) 
5.38764

>  <index>  (81) 
83

>  <Smiles>  (81) 
N(S(=O)(=O)c1c(c(c2c(c1[H])[C@@]1(C(C(O2)([H])[H])([H])[H])N(C(=O)N(c2c(nc(c3c(c(c(c(c23)[H])[H])[H])[H])[H])[H])C1=O)[H])[H])[H])([H])[H]

>  <h>  (81) 
<NA>

>  <Training>  (81) 
True

>  <Success>  (81) 
True

>  <enamine_searched>  (81) 
False

>  <enamine_id>  (81) 
nan

$$$$

     RDKit          3D

 63 68  0  0  0  0  0  0  0  0999 V2000
   -8.0161   -4.1060  -23.8008 C   0  0  0  0  0  0  0  0  0  0  0  0
   -8.1761   -3.2354  -22.5581 C   0  0  1  0  0  0  0  0  0  0  0  0
   -6.8535   -2.6336  -22.0477 C   0  0  0  0  0  0  0  0  0  0  0  0
   -7.3229   -1.5510  -21.2076 N   0  0  0  0  0  0  0  0  0  0  0  0
   -6.5993   -0.9103  -20.1713 C   0  0  0  0  0  0  0  0  0  0  0  0
   -6.9726   -1.0659  -18.8589 C   0  0  0  0  0  0  0  0  0  0  0  0
   -6.3077   -0.5302  -17.8073 N   0  0  0  0  0  0  0  0  0  0  0  0
   -5.2611    0.2174  -18.0724 C   0  0  0  0  0  0  0  0  0  0  0  0
   -4.7915    0.5023  -19.3860 C   0  0  0  0  0  0  0  0  0  0  0  0
   -3.6732    1.3486  -19.6319 C   0  0  0  0  0  0  0  0  0  0  0  0
   -3.2847    1.6311  -20.9142 C   0  0  0  0  0  0  0  0  0  0  0  0
   -3.9975    1.0946  -22.0089 C   0  0  0  0  0  0  0  0  0  0  0  0
   -5.0700    0.2577  -21.7955 C   0  0  0  0  0  0  0  0  0  0  0  0
   -5.4839   -0.0731  -20.4771 C   0  0  0  0  0  0  0  0  0  0  0  0
   -5.6520   -0.0871  -22.6436 H   0  0  0  0  0  0  0  0  0  0  0  0
   -3.7153    1.3555  -23.0262 H   0  0  0  0  0  0  0  0  0  0  0  0
   -2.4445    2.2966  -21.0973 H   0  0  0  0  0  0  0  0  0  0  0  0
   -3.1545    1.7812  -18.7790 H   0  0  0  0  0  0  0  0  0  0  0  0
   -4.7263    0.6410  -17.2218 H   0  0  0  0  0  0  0  0  0  0  0  0
   -7.8450   -1.6649  -18.6120 H   0  0  0  0  0  0  0  0  0  0  0  0
   -8.5849   -1.1130  -21.5346 C   0  0  0  0  0  0  0  0  0  0  0  0
   -9.0991   -0.1531  -20.9969 O   0  0  0  0  0  0  0  0  0  0  0  0
   -9.1530   -2.0200  -22.6674 C   0  0  1  0  0  0  0  0  0  0  0  0
   -8.9552   -1.3150  -24.0347 C   0  0  0  0  0  0  0  0  0  0  0  0
   -9.9175   -0.2548  -24.2856 N   0  0  0  0  0  0  0  0  0  0  0  0
   -9.4407    0.9149  -25.0244 C   0  0  0  0  0  0  0  0  0  0  0  0
   -8.3566    1.5865  -24.1777 C   0  0  0  0  0  0  0  0  0  0  0  0
   -7.1658    1.5296  -24.4583 O   0  0  0  0  0  0  0  0  0  0  0  0
   -8.8175    2.1668  -23.0412 N   0  0  0  0  0  0  0  0  0  0  0  0
   -7.9265    2.5312  -21.9663 C   0  0  0  0  0  0  0  0  0  0  0  0
   -7.4180    3.9457  -22.0231 C   0  0  0  0  0  0  0  0  0  0  0  0
   -8.4213    4.8788  -22.1045 F   0  0  0  0  0  0  0  0  0  0  0  0
   -6.1445    4.3305  -22.6976 C   0  0  0  0  0  0  0  0  0  0  0  0
   -6.2463    4.3085  -21.1882 C   0  0  0  0  0  0  0  0  0  0  0  0
   -5.7602    3.4920  -20.6628 H   0  0  0  0  0  0  0  0  0  0  0  0
   -6.3034    5.2543  -20.6678 H   0  0  0  0  0  0  0  0  0  0  0  0
   -5.5759    3.5550  -23.2061 H   0  0  0  0  0  0  0  0  0  0  0  0
   -6.1383    5.3038  -23.1743 H   0  0  0  0  0  0  0  0  0  0  0  0
   -8.4449    2.3536  -21.0223 H   0  0  0  0  0  0  0  0  0  0  0  0
   -7.0677    1.8570  -21.9859 H   0  0  0  0  0  0  0  0  0  0  0  0
   -9.7947    2.0835  -22.8135 H   0  0  0  0  0  0  0  0  0  0  0  0
   -9.0068    0.6565  -26.0003 H   0  0  0  0  0  0  0  0  0  0  0  0
  -10.2898    1.5836  -25.1954 H   0  0  0  0  0  0  0  0  0  0  0  0
  -11.2539   -0.5394  -24.2054 C   0  0  0  0  0  0  0  0  0  0  0  0
  -12.1036    0.0273  -24.8801 O   0  0  0  0  0  0  0  0  0  0  0  0
  -11.6205   -1.5618  -23.1715 C   0  0  0  0  0  0  0  0  0  0  0  0
  -12.9830   -1.6773  -22.8720 C   0  0  0  0  0  0  0  0  0  0  0  0
  -13.4337   -2.5830  -21.9366 C   0  0  0  0  0  0  0  0  0  0  0  0
  -12.4864   -3.3943  -21.3297 C   0  0  0  0  0  0  0  0  0  0  0  0
  -12.9203   -4.2611  -20.3949 F   0  0  0  0  0  0  0  0  0  0  0  0
  -11.1312   -3.3228  -21.6212 C   0  0  0  0  0  0  0  0  0  0  0  0
  -10.6477   -2.3357  -22.5055 C   0  0  0  0  0  0  0  0  0  0  0  0
  -10.4960   -4.0294  -21.0925 H   0  0  0  0  0  0  0  0  0  0  0  0
  -14.4847   -2.6789  -21.6753 H   0  0  0  0  0  0  0  0  0  0  0  0
  -13.6863   -1.0283  -23.3855 H   0  0  0  0  0  0  0  0  0  0  0  0
   -9.0489   -2.0611  -24.8321 H   0  0  0  0  0  0  0  0  0  0  0  0
   -7.9601   -0.8692  -24.1054 H   0  0  0  0  0  0  0  0  0  0  0  0
   -6.2217   -2.2667  -22.8749 H   0  0  0  0  0  0  0  0  0  0  0  0
   -6.2571   -3.3495  -21.4759 H   0  0  0  0  0  0  0  0  0  0  0  0
   -8.5530   -3.8561  -21.7395 H   0  0  0  0  0  0  0  0  0  0  0  0
   -7.4730   -3.5837  -24.5982 H   0  0  0  0  0  0  0  0  0  0  0  0
   -7.4577   -5.0181  -23.5720 H   0  0  0  0  0  0  0  0  0  0  0  0
   -8.9876   -4.4066  -24.2062 H   0  0  0  0  0  0  0  0  0  0  0  0
  1  2  1  0
  2  3  1  0
  3  4  1  0
  4  5  1  0
  5  6  2  0
  6  7  1  0
  7  8  2  0
  8  9  1  0
  9 10  2  0
 10 11  1  0
 11 12  2  0
 12 13  1  0
 13 14  2  0
 13 15  1  0
 12 16  1  0
 11 17  1  0
 10 18  1  0
  8 19  1  0
  6 20  1  0
  4 21  1  0
 21 22  2  0
 21 23  1  0
 23 24  1  6
 24 25  1  0
 25 26  1  0
 26 27  1  0
 27 28  2  0
 27 29  1  0
 29 30  1  0
 30 31  1  0
 31 32  1  0
 31 33  1  0
 33 34  1  0
 34 35  1  0
 34 36  1  0
 33 37  1  0
 33 38  1  0
 30 39  1  0
 30 40  1  0
 29 41  1  0
 26 42  1  0
 26 43  1  0
 25 44  1  0
 44 45  2  0
 44 46  1  0
 46 47  2  0
 47 48  1  0
 48 49  2  0
 49 50  1  0
 49 51  1  0
 51 52  2  0
 51 53  1  0
 48 54  1  0
 47 55  1  0
 24 56  1  0
 24 57  1  0
  3 58  1  0
  3 59  1  0
  2 60  1  1
  1 61  1  0
  1 62  1  0
  1 63  1  0
 23  2  1  0
 34 31  1  0
 52 46  1  0
 14  5  1  0
 52 23  1  0
 14  9  1  0
M  END
>  <cnnaffinities>  (82) 
[6.90994]

>  <score>  (82) 
6.90994

>  <index>  (82) 
84

>  <Smiles>  (82) 
C([C@]1(C(N(c2c(nc(c3c(c(c(c(c23)[H])[H])[H])[H])[H])[H])C(=O)[C@]21C(N(C(C(=O)N(C(C1(F)C(C1([H])[H])([H])[H])([H])[H])[H])([H])[H])C(=O)c1c(c(c(F)c(c21)[H])[H])[H])([H])[H])([H])[H])[H])([H])([H])[H]

>  <h>  (82) 
<NA>

>  <Training>  (82) 
True

>  <Success>  (82) 
True

>  <enamine_searched>  (82) 
False

>  <enamine_id>  (82) 
nan

$$$$

     RDKit          3D

 57 62  0  0  0  0  0  0  0  0999 V2000
   -9.2681    1.0553  -29.3093 C   0  0  0  0  0  0  0  0  0  0  0  0
   -9.1101    1.4097  -27.9177 N   0  0  0  0  0  0  0  0  0  0  0  0
   -8.2481    0.6779  -27.1619 C   0  0  0  0  0  0  0  0  0  0  0  0
   -7.4971   -0.1707  -27.6142 O   0  0  0  0  0  0  0  0  0  0  0  0
   -8.3205    0.9892  -25.6731 C   0  0  0  0  0  0  0  0  0  0  0  0
   -9.1154   -0.0080  -24.9960 N   0  0  0  0  0  0  0  0  0  0  0  0
   -8.5084   -1.2526  -24.5706 C   0  0  0  0  0  0  0  0  0  0  0  0
   -8.9072   -1.6097  -23.1182 C   0  0  2  0  0  0  0  0  0  0  0  0
   -8.2266   -0.6413  -22.1174 C   0  0  0  0  0  0  0  0  0  0  0  0
   -8.3542    0.5616  -22.0765 O   0  0  0  0  0  0  0  0  0  0  0  0
   -7.4087   -1.3682  -21.2670 N   0  0  0  0  0  0  0  0  0  0  0  0
   -6.6264   -0.8011  -20.2262 C   0  0  0  0  0  0  0  0  0  0  0  0
   -6.9200   -1.0662  -18.9095 C   0  0  0  0  0  0  0  0  0  0  0  0
   -6.2405   -0.5695  -17.8442 N   0  0  0  0  0  0  0  0  0  0  0  0
   -5.2097    0.2022  -18.0954 C   0  0  0  0  0  0  0  0  0  0  0  0
   -4.7598    0.5199  -19.4086 C   0  0  0  0  0  0  0  0  0  0  0  0
   -3.6233    1.3459  -19.6205 C   0  0  0  0  0  0  0  0  0  0  0  0
   -3.1894    1.6146  -20.8898 C   0  0  0  0  0  0  0  0  0  0  0  0
   -3.8626    1.0614  -22.0012 C   0  0  0  0  0  0  0  0  0  0  0  0
   -4.9655    0.2622  -21.8215 C   0  0  0  0  0  0  0  0  0  0  0  0
   -5.4631   -0.0089  -20.5152 C   0  0  0  0  0  0  0  0  0  0  0  0
   -5.4595   -0.1736  -22.6838 H   0  0  0  0  0  0  0  0  0  0  0  0
   -3.5055    1.2721  -23.0051 H   0  0  0  0  0  0  0  0  0  0  0  0
   -2.3272    2.2557  -21.0528 H   0  0  0  0  0  0  0  0  0  0  0  0
   -3.1145    1.7575  -18.7523 H   0  0  0  0  0  0  0  0  0  0  0  0
   -4.6608    0.6070  -17.2434 H   0  0  0  0  0  0  0  0  0  0  0  0
   -7.7745   -1.6927  -18.6584 H   0  0  0  0  0  0  0  0  0  0  0  0
   -7.5981   -2.7919  -21.3765 C   0  0  0  0  0  0  0  0  0  0  0  0
   -8.3712   -2.9800  -22.6683 C   0  0  0  0  0  0  0  0  0  0  0  0
   -9.2172   -4.2091  -22.8222 C   0  0  0  0  0  0  0  0  0  0  0  0
   -7.9761   -4.0554  -23.6448 C   0  0  0  0  0  0  0  0  0  0  0  0
   -7.1174   -4.6883  -23.4373 H   0  0  0  0  0  0  0  0  0  0  0  0
   -8.1035   -3.8340  -24.6988 H   0  0  0  0  0  0  0  0  0  0  0  0
   -9.2420   -4.9244  -22.0041 H   0  0  0  0  0  0  0  0  0  0  0  0
  -10.1735   -4.0812  -23.3180 H   0  0  0  0  0  0  0  0  0  0  0  0
   -6.6377   -3.3104  -21.3667 H   0  0  0  0  0  0  0  0  0  0  0  0
   -8.1862   -3.1612  -20.5346 H   0  0  0  0  0  0  0  0  0  0  0  0
  -10.4308   -1.4870  -23.0753 C   0  0  0  0  0  0  0  0  0  0  0  0
  -11.1435   -2.1634  -22.0868 C   0  0  0  0  0  0  0  0  0  0  0  0
  -12.5245   -2.1255  -22.0608 C   0  0  0  0  0  0  0  0  0  0  0  0
  -13.3076   -3.0965  -20.8468 Cl  0  0  0  0  0  0  0  0  0  0  0  0
  -13.2600   -1.3759  -22.9809 C   0  0  0  0  0  0  0  0  0  0  0  0
  -12.5570   -0.6760  -23.9491 C   0  0  0  0  0  0  0  0  0  0  0  0
  -11.1650   -0.7372  -24.0043 C   0  0  0  0  0  0  0  0  0  0  0  0
  -10.4732    0.0743  -25.0466 C   0  0  0  0  0  0  0  0  0  0  0  0
  -11.0720    0.8069  -25.8349 O   0  0  0  0  0  0  0  0  0  0  0  0
  -13.0460   -0.0195  -24.6620 H   0  0  0  0  0  0  0  0  0  0  0  0
  -14.3458   -1.3523  -22.9415 H   0  0  0  0  0  0  0  0  0  0  0  0
  -10.6076   -2.7815  -21.3790 H   0  0  0  0  0  0  0  0  0  0  0  0
   -7.4289   -1.1817  -24.7026 H   0  0  0  0  0  0  0  0  0  0  0  0
   -8.8627   -2.0427  -25.2419 H   0  0  0  0  0  0  0  0  0  0  0  0
   -8.7380    1.9866  -25.4955 H   0  0  0  0  0  0  0  0  0  0  0  0
   -7.3148    0.9474  -25.2481 H   0  0  0  0  0  0  0  0  0  0  0  0
   -9.9174    1.7796  -27.4322 H   0  0  0  0  0  0  0  0  0  0  0  0
   -9.5348   -0.0025  -29.4235 H   0  0  0  0  0  0  0  0  0  0  0  0
  -10.0451    1.6816  -29.7540 H   0  0  0  0  0  0  0  0  0  0  0  0
   -8.3254    1.2281  -29.8336 H   0  0  0  0  0  0  0  0  0  0  0  0
  1  2  1  0
  2  3  1  0
  3  4  2  0
  3  5  1  0
  5  6  1  0
  6  7  1  0
  8  7  1  6
  8  9  1  0
  9 10  2  0
  9 11  1  0
 11 12  1  0
 12 13  2  0
 13 14  1  0
 14 15  2  0
 15 16  1  0
 16 17  2  0
 17 18  1  0
 18 19  2  0
 19 20  1  0
 20 21  2  0
 20 22  1  0
 19 23  1  0
 18 24  1  0
 17 25  1  0
 15 26  1  0
 13 27  1  0
 11 28  1  0
 28 29  1  0
 29 30  1  0
 30 31  1  0
 31 32  1  0
 31 33  1  0
 30 34  1  0
 30 35  1  0
 28 36  1  0
 28 37  1  0
  8 38  1  0
 38 39  2  0
 39 40  1  0
 40 41  1  0
 40 42  2  0
 42 43  1  0
 43 44  2  0
 44 45  1  0
 45 46  2  0
 43 47  1  0
 42 48  1  0
 39 49  1  0
  7 50  1  0
  7 51  1  0
  5 52  1  0
  5 53  1  0
  2 54  1  0
  1 55  1  0
  1 56  1  0
  1 57  1  0
 45  6  1  0
 29  8  1  0
 44 38  1  0
 21 12  1  0
 31 29  1  0
 21 16  1  0
M  END
>  <cnnaffinities>  (83) 
[6.48374]

>  <score>  (83) 
6.48374

>  <index>  (83) 
85

>  <Smiles>  (83) 
C(N(C(=O)C(N1C([C@@]2(C(=O)N(c3c(nc(c4c(c(c(c(c34)[H])[H])[H])[H])[H])[H])C(C32C(C3([H])[H])([H])[H])([H])[H])c2c(c(Cl)c(c(c2C1=O)[H])[H])[H])([H])[H])([H])[H])[H])([H])([H])[H]

>  <h>  (83) 
<NA>

>  <Training>  (83) 
True

>  <Success>  (83) 
True

>  <enamine_searched>  (83) 
False

>  <enamine_id>  (83) 
nan

$$$$

     RDKit          3D

 43 45  0  0  0  0  0  0  0  0999 V2000
   -8.5442   -5.5614  -25.7846 C   0  0  0  0  0  0  0  0  0  0  0  0
   -9.0569   -5.4437  -24.3480 C   0  0  1  0  0  0  0  0  0  0  0  0
   -8.0199   -5.8732  -23.3143 C   0  0  0  0  0  0  0  0  0  0  0  0
   -6.9334   -4.8294  -23.0968 C   0  0  0  0  0  0  0  0  0  0  0  0
   -7.5149   -3.5419  -22.7120 N   0  0  0  0  0  0  0  0  0  0  0  0
   -6.7554   -2.7469  -21.8638 C   0  0  0  0  0  0  0  0  0  0  0  0
   -5.6228   -3.0643  -21.5479 O   0  0  0  0  0  0  0  0  0  0  0  0
   -7.4116   -1.4745  -21.2698 C   0  0  0  0  0  0  0  0  0  0  0  0
   -6.5794   -0.8306  -20.1830 C   0  0  0  0  0  0  0  0  0  0  0  0
   -6.8732   -1.0466  -18.8624 C   0  0  0  0  0  0  0  0  0  0  0  0
   -6.1892   -0.5440  -17.7982 N   0  0  0  0  0  0  0  0  0  0  0  0
   -5.1593    0.2229  -18.0651 C   0  0  0  0  0  0  0  0  0  0  0  0
   -4.7226    0.5309  -19.3804 C   0  0  0  0  0  0  0  0  0  0  0  0
   -3.5944    1.3575  -19.6211 C   0  0  0  0  0  0  0  0  0  0  0  0
   -3.1912    1.6337  -20.8999 C   0  0  0  0  0  0  0  0  0  0  0  0
   -3.9019    1.0897  -21.9925 C   0  0  0  0  0  0  0  0  0  0  0  0
   -4.9981    0.2880  -21.7852 C   0  0  0  0  0  0  0  0  0  0  0  0
   -5.4449   -0.0130  -20.4733 C   0  0  0  0  0  0  0  0  0  0  0  0
   -5.5236   -0.1326  -22.6360 H   0  0  0  0  0  0  0  0  0  0  0  0
   -3.5772    1.3090  -23.0052 H   0  0  0  0  0  0  0  0  0  0  0  0
   -2.3296    2.2708  -21.0856 H   0  0  0  0  0  0  0  0  0  0  0  0
   -3.0600    1.7720  -18.7689 H   0  0  0  0  0  0  0  0  0  0  0  0
   -4.6053    0.6290  -17.2156 H   0  0  0  0  0  0  0  0  0  0  0  0
   -7.7205   -1.6704  -18.5851 H   0  0  0  0  0  0  0  0  0  0  0  0
   -7.6210   -0.7478  -22.0679 H   0  0  0  0  0  0  0  0  0  0  0  0
   -8.3917   -1.7509  -20.8547 H   0  0  0  0  0  0  0  0  0  0  0  0
   -8.5395   -2.9953  -23.6126 C   0  0  1  0  0  0  0  0  0  0  0  0
   -7.9408   -2.2906  -24.8401 C   0  0  0  0  0  0  0  0  0  0  0  0
   -8.7280   -1.9762  -25.5347 H   0  0  0  0  0  0  0  0  0  0  0  0
   -7.2483   -2.9313  -25.3934 H   0  0  0  0  0  0  0  0  0  0  0  0
   -7.3900   -1.3888  -24.5498 H   0  0  0  0  0  0  0  0  0  0  0  0
   -9.5893   -4.0624  -23.9665 C   0  0  0  0  0  0  0  0  0  0  0  0
  -10.2121   -3.6817  -24.7831 H   0  0  0  0  0  0  0  0  0  0  0  0
  -10.2615   -4.1727  -23.1085 H   0  0  0  0  0  0  0  0  0  0  0  0
   -9.0794   -2.2357  -23.0428 H   0  0  0  0  0  0  0  0  0  0  0  0
   -6.2963   -4.7511  -23.9897 H   0  0  0  0  0  0  0  0  0  0  0  0
   -6.2732   -5.1428  -22.2908 H   0  0  0  0  0  0  0  0  0  0  0  0
   -7.5731   -6.8270  -23.6139 H   0  0  0  0  0  0  0  0  0  0  0  0
   -8.4995   -6.0464  -22.3501 H   0  0  0  0  0  0  0  0  0  0  0  0
   -9.9081   -6.1300  -24.2885 H   0  0  0  0  0  0  0  0  0  0  0  0
   -7.5978   -5.0383  -25.9418 H   0  0  0  0  0  0  0  0  0  0  0  0
   -8.3801   -6.6133  -26.0491 H   0  0  0  0  0  0  0  0  0  0  0  0
   -9.2677   -5.1517  -26.4969 H   0  0  0  0  0  0  0  0  0  0  0  0
  1  2  1  0
  2  3  1  0
  3  4  1  0
  4  5  1  0
  5  6  1  0
  6  7  2  0
  6  8  1  0
  8  9  1  0
  9 10  2  0
 10 11  1  0
 11 12  2  0
 12 13  1  0
 13 14  2  0
 14 15  1  0
 15 16  2  0
 16 17  1  0
 17 18  2  0
 17 19  1  0
 16 20  1  0
 15 21  1  0
 14 22  1  0
 12 23  1  0
 10 24  1  0
  8 25  1  0
  8 26  1  0
  5 27  1  0
 27 28  1  0
 28 29  1  0
 28 30  1  0
 28 31  1  0
 27 32  1  0
 32 33  1  0
 32 34  1  0
 27 35  1  1
  4 36  1  0
  4 37  1  0
  3 38  1  0
  3 39  1  0
  2 40  1  6
  1 41  1  0
  1 42  1  0
  1 43  1  0
 32  2  1  0
 18  9  1  0
 18 13  1  0
M  END
>  <cnnaffinities>  (84) 
[5.19789, 5.21488]

>  <score>  (84) 
5.19789

>  <index>  (84) 
86

>  <Smiles>  (84) 
C([C@]1(C(C(N(C(=O)C(c2c(nc(c3c(c(c(c(c23)[H])[H])[H])[H])[H])[H])([H])[H])[C@@](C([H])([H])[H])(C1([H])[H])[H])([H])[H])([H])[H])[H])([H])([H])[H]

>  <h>  (84) 
<NA>

>  <Training>  (84) 
True

>  <Success>  (84) 
True

>  <enamine_searched>  (84) 
False

>  <enamine_id>  (84) 
nan

$$$$

     RDKit          3D

 59 64  0  0  0  0  0  0  0  0999 V2000
   -8.2443   -4.0399  -23.6049 C   0  0  0  0  0  0  0  0  0  0  0  0
   -8.4671   -2.9416  -22.5784 C   0  0  1  0  0  0  0  0  0  0  0  0
   -7.2911   -2.7294  -21.6237 C   0  0  0  0  0  0  0  0  0  0  0  0
   -7.4441   -1.3505  -21.2164 N   0  0  0  0  0  0  0  0  0  0  0  0
   -6.6386   -0.7912  -20.1983 C   0  0  0  0  0  0  0  0  0  0  0  0
   -6.9221   -1.0716  -18.8848 C   0  0  0  0  0  0  0  0  0  0  0  0
   -6.2374   -0.5791  -17.8255 N   0  0  0  0  0  0  0  0  0  0  0  0
   -5.2148    0.1995  -18.0924 C   0  0  0  0  0  0  0  0  0  0  0  0
   -4.7812    0.5274  -19.4098 C   0  0  0  0  0  0  0  0  0  0  0  0
   -3.6457    1.3502  -19.6294 C   0  0  0  0  0  0  0  0  0  0  0  0
   -3.2203    1.6194  -20.9006 C   0  0  0  0  0  0  0  0  0  0  0  0
   -3.9049    1.0763  -22.0100 C   0  0  0  0  0  0  0  0  0  0  0  0
   -5.0130    0.2851  -21.8242 C   0  0  0  0  0  0  0  0  0  0  0  0
   -5.4923    0.0046  -20.5104 C   0  0  0  0  0  0  0  0  0  0  0  0
   -5.5167   -0.1312  -22.6918 H   0  0  0  0  0  0  0  0  0  0  0  0
   -3.5475    1.2834  -23.0138 H   0  0  0  0  0  0  0  0  0  0  0  0
   -2.3503    2.2467  -21.0639 H   0  0  0  0  0  0  0  0  0  0  0  0
   -3.1299    1.7524  -18.7617 H   0  0  0  0  0  0  0  0  0  0  0  0
   -4.6585    0.6049  -17.2476 H   0  0  0  0  0  0  0  0  0  0  0  0
   -7.7688   -1.7180  -18.6576 H   0  0  0  0  0  0  0  0  0  0  0  0
   -8.2572   -0.6012  -22.0372 C   0  0  0  0  0  0  0  0  0  0  0  0
   -8.4755    0.5829  -21.8835 O   0  0  0  0  0  0  0  0  0  0  0  0
   -8.7802   -1.5329  -23.1647 C   0  0  1  0  0  0  0  0  0  0  0  0
   -7.9686   -1.2774  -24.4601 C   0  0  0  0  0  0  0  0  0  0  0  0
   -8.3100   -0.0064  -25.0707 N   0  0  0  0  0  0  0  0  0  0  0  0
   -7.3064    0.7669  -25.7785 C   0  0  0  0  0  0  0  0  0  0  0  0
   -7.1856    2.1743  -25.2594 C   0  0  0  0  0  0  0  0  0  0  0  0
   -6.9265    2.6759  -23.9948 C   0  0  0  0  0  0  0  0  0  0  0  0
   -6.8819    4.0756  -24.1716 C   0  0  0  0  0  0  0  0  0  0  0  0
   -7.1013    4.4122  -25.4367 N   0  0  0  0  0  0  0  0  0  0  0  0
   -7.2908    3.2525  -26.0797 N   0  0  0  0  0  0  0  0  0  0  0  0
   -7.5960    3.2930  -27.4990 C   0  0  0  0  0  0  0  0  0  0  0  0
   -7.6995    4.3498  -27.7440 H   0  0  0  0  0  0  0  0  0  0  0  0
   -6.7760    2.8722  -28.0926 H   0  0  0  0  0  0  0  0  0  0  0  0
   -8.5308    2.7670  -27.7162 H   0  0  0  0  0  0  0  0  0  0  0  0
   -6.6997    4.8632  -23.4475 H   0  0  0  0  0  0  0  0  0  0  0  0
   -6.8323    2.1228  -23.0632 H   0  0  0  0  0  0  0  0  0  0  0  0
   -6.3547    0.2417  -25.6694 H   0  0  0  0  0  0  0  0  0  0  0  0
   -7.5411    0.7808  -26.8497 H   0  0  0  0  0  0  0  0  0  0  0  0
   -9.6109    0.3246  -25.3215 C   0  0  0  0  0  0  0  0  0  0  0  0
   -9.9231    1.1845  -26.1371 O   0  0  0  0  0  0  0  0  0  0  0  0
  -10.6275   -0.4194  -24.5183 C   0  0  0  0  0  0  0  0  0  0  0  0
  -11.9750   -0.1786  -24.7992 C   0  0  0  0  0  0  0  0  0  0  0  0
  -12.9670   -0.7026  -23.9949 C   0  0  0  0  0  0  0  0  0  0  0  0
  -12.5716   -1.5277  -22.9459 C   0  0  0  0  0  0  0  0  0  0  0  0
  -13.5167   -2.0366  -22.1368 F   0  0  0  0  0  0  0  0  0  0  0  0
  -11.2559   -1.8658  -22.7106 C   0  0  0  0  0  0  0  0  0  0  0  0
  -10.2434   -1.2856  -23.4833 C   0  0  0  0  0  0  0  0  0  0  0  0
  -11.0445   -2.5653  -21.9080 H   0  0  0  0  0  0  0  0  0  0  0  0
  -14.0176   -0.4685  -24.1457 H   0  0  0  0  0  0  0  0  0  0  0  0
  -12.2109    0.4154  -25.6744 H   0  0  0  0  0  0  0  0  0  0  0  0
   -6.8981   -1.2728  -24.2328 H   0  0  0  0  0  0  0  0  0  0  0  0
   -8.1569   -2.0981  -25.1668 H   0  0  0  0  0  0  0  0  0  0  0  0
   -6.3211   -2.9121  -22.1129 H   0  0  0  0  0  0  0  0  0  0  0  0
   -7.3399   -3.3814  -20.7518 H   0  0  0  0  0  0  0  0  0  0  0  0
   -9.3131   -3.2276  -21.9500 H   0  0  0  0  0  0  0  0  0  0  0  0
   -9.0784   -4.0812  -24.3133 H   0  0  0  0  0  0  0  0  0  0  0  0
   -7.3240   -3.8590  -24.1711 H   0  0  0  0  0  0  0  0  0  0  0  0
   -8.1525   -5.0121  -23.1163 H   0  0  0  0  0  0  0  0  0  0  0  0
  1  2  1  0
  2  3  1  0
  3  4  1  0
  4  5  1  0
  5  6  2  0
  6  7  1  0
  7  8  2  0
  8  9  1  0
  9 10  2  0
 10 11  1  0
 11 12  2  0
 12 13  1  0
 13 14  2  0
 13 15  1  0
 12 16  1  0
 11 17  1  0
 10 18  1  0
  8 19  1  0
  6 20  1  0
  4 21  1  0
 21 22  2  0
 21 23  1  0
 23 24  1  6
 24 25  1  0
 25 26  1  0
 26 27  1  0
 27 28  2  0
 28 29  1  0
 29 30  2  0
 30 31  1  0
 31 32  1  0
 32 33  1  0
 32 34  1  0
 32 35  1  0
 29 36  1  0
 28 37  1  0
 26 38  1  0
 26 39  1  0
 25 40  1  0
 40 41  2  0
 40 42  1  0
 42 43  2  0
 43 44  1  0
 44 45  2  0
 45 46  1  0
 45 47  1  0
 47 48  2  0
 47 49  1  0
 44 50  1  0
 43 51  1  0
 24 52  1  0
 24 53  1  0
  3 54  1  0
  3 55  1  0
  2 56  1  1
  1 57  1  0
  1 58  1  0
  1 59  1  0
 23  2  1  0
 31 27  1  0
 48 42  1  0
 14  5  1  0
 48 23  1  0
 14  9  1  0
M  END
>  <cnnaffinities>  (85) 
[6.7882, 6.34095, 6.98892, 6.6024, 7.05169]

>  <score>  (85) 
6.7882

>  <index>  (85) 
87

>  <Smiles>  (85) 
C([C@]1(C(N(c2c(nc(c3c(c(c(c(c23)[H])[H])[H])[H])[H])[H])C(=O)[C@]21C(N(C(c1c(c(nn1C([H])([H])[H])[H])[H])([H])[H])C(=O)c1c(c(c(F)c(c21)[H])[H])[H])([H])[H])([H])[H])[H])([H])([H])[H]

>  <h>  (85) 
<NA>

>  <Training>  (85) 
True

>  <Success>  (85) 
True

>  <enamine_searched>  (85) 
False

>  <enamine_id>  (85) 
nan

$$$$

     RDKit          3D

 40 42  0  0  0  0  0  0  0  0999 V2000
   -9.0134    0.3109  -21.0248 O   0  0  0  0  0  0  0  0  0  0  0  0
   -8.3016   -0.2885  -21.8023 C   0  0  0  0  0  0  0  0  0  0  0  0
   -7.4176   -1.4240  -21.2824 C   0  0  0  0  0  0  0  0  0  0  0  0
   -6.5589   -0.8473  -20.1758 C   0  0  0  0  0  0  0  0  0  0  0  0
   -6.8729   -1.0446  -18.8576 C   0  0  0  0  0  0  0  0  0  0  0  0
   -6.1928   -0.5361  -17.7959 N   0  0  0  0  0  0  0  0  0  0  0  0
   -5.1595    0.2235  -18.0655 C   0  0  0  0  0  0  0  0  0  0  0  0
   -4.7256    0.5361  -19.3809 C   0  0  0  0  0  0  0  0  0  0  0  0
   -3.6051    1.3677  -19.6245 C   0  0  0  0  0  0  0  0  0  0  0  0
   -3.2150    1.6614  -20.9010 C   0  0  0  0  0  0  0  0  0  0  0  0
   -3.9325    1.1293  -21.9942 C   0  0  0  0  0  0  0  0  0  0  0  0
   -5.0190    0.3177  -21.7868 C   0  0  0  0  0  0  0  0  0  0  0  0
   -5.4489   -0.0037  -20.4732 C   0  0  0  0  0  0  0  0  0  0  0  0
   -5.5494   -0.0918  -22.6407 H   0  0  0  0  0  0  0  0  0  0  0  0
   -3.6167    1.3609  -23.0092 H   0  0  0  0  0  0  0  0  0  0  0  0
   -2.3590    2.3106  -21.0820 H   0  0  0  0  0  0  0  0  0  0  0  0
   -3.0733    1.7758  -18.7680 H   0  0  0  0  0  0  0  0  0  0  0  0
   -4.6079    0.6280  -17.2137 H   0  0  0  0  0  0  0  0  0  0  0  0
   -7.7269   -1.6618  -18.5763 H   0  0  0  0  0  0  0  0  0  0  0  0
   -6.8209   -1.8639  -22.0924 H   0  0  0  0  0  0  0  0  0  0  0  0
   -8.0706   -2.1937  -20.8505 H   0  0  0  0  0  0  0  0  0  0  0  0
   -8.1690    0.0928  -23.1313 N   0  0  0  0  0  0  0  0  0  0  0  0
   -8.2662   -0.8168  -24.2642 C   0  0  0  0  0  0  0  0  0  0  0  0
   -7.2886   -0.4218  -25.3624 C   0  0  0  0  0  0  0  0  0  0  0  0
   -7.4937    1.0410  -25.7577 C   0  0  0  0  0  0  0  0  0  0  0  0
   -6.5111    1.4810  -26.8265 C   0  0  0  0  0  0  0  0  0  0  0  0
   -6.6558    0.7086  -27.9455 F   0  0  0  0  0  0  0  0  0  0  0  0
   -5.2281    1.3137  -26.3796 F   0  0  0  0  0  0  0  0  0  0  0  0
   -6.6288    2.5331  -27.1290 H   0  0  0  0  0  0  0  0  0  0  0  0
   -7.4058    1.9381  -24.5251 C   0  0  0  0  0  0  0  0  0  0  0  0
   -8.3896    1.4943  -23.4512 C   0  0  0  0  0  0  0  0  0  0  0  0
   -9.4206    1.6889  -23.7798 H   0  0  0  0  0  0  0  0  0  0  0  0
   -8.2504    2.0532  -22.5258 H   0  0  0  0  0  0  0  0  0  0  0  0
   -7.5951    2.9766  -24.8084 H   0  0  0  0  0  0  0  0  0  0  0  0
   -6.3844    1.9076  -24.1252 H   0  0  0  0  0  0  0  0  0  0  0  0
   -8.4857    1.1481  -26.2186 H   0  0  0  0  0  0  0  0  0  0  0  0
   -6.2646   -0.5573  -24.9984 H   0  0  0  0  0  0  0  0  0  0  0  0
   -7.4110   -1.0701  -26.2349 H   0  0  0  0  0  0  0  0  0  0  0  0
   -9.2865   -0.8187  -24.6834 H   0  0  0  0  0  0  0  0  0  0  0  0
   -8.0770   -1.8255  -23.8975 H   0  0  0  0  0  0  0  0  0  0  0  0
  1  2  2  0
  2  3  1  0
  3  4  1  0
  4  5  2  0
  5  6  1  0
  6  7  2  0
  7  8  1  0
  8  9  2  0
  9 10  1  0
 10 11  2  0
 11 12  1  0
 12 13  2  0
 12 14  1  0
 11 15  1  0
 10 16  1  0
  9 17  1  0
  7 18  1  0
  5 19  1  0
  3 20  1  0
  3 21  1  0
  2 22  1  0
 22 23  1  0
 23 24  1  0
 24 25  1  0
 25 26  1  0
 26 27  1  0
 26 28  1  0
 26 29  1  0
 25 30  1  0
 30 31  1  0
 31 32  1  0
 31 33  1  0
 30 34  1  0
 30 35  1  0
 25 36  1  0
 24 37  1  0
 24 38  1  0
 23 39  1  0
 23 40  1  0
 13  4  1  0
 31 22  1  0
 13  8  1  0
M  END
>  <cnnaffinities>  (86) 
[5.10337, 5.07963, 5.08012, 4.99818, 4.99818, 4.98729, 5.17087, 5.01423, 5.19327, 5.19329, 5.19331, 5.21721, 5.0758, 5.07577]

>  <score>  (86) 
5.10337

>  <index>  (86) 
88

>  <Smiles>  (86) 
O=C(C(c1c(nc(c2c(c(c(c(c12)[H])[H])[H])[H])[H])[H])([H])[H])N1C(C(C(C(F)(F)[H])(C(C1([H])[H])([H])[H])[H])([H])[H])([H])[H]

>  <h>  (86) 
<NA>

>  <Training>  (86) 
True

>  <Success>  (86) 
True

>  <enamine_searched>  (86) 
False

>  <enamine_id>  (86) 
nan

$$$$

     RDKit          3D

 43 45  0  0  0  0  0  0  0  0999 V2000
   -9.8309    0.6076  -27.2148 C   0  0  0  0  0  0  0  0  0  0  0  0
   -8.7890    0.4543  -26.0990 C   0  0  0  0  0  0  0  0  0  0  0  0
   -7.4000    0.6950  -26.6875 C   0  0  0  0  0  0  0  0  0  0  0  0
   -6.6064    0.6034  -25.9427 H   0  0  0  0  0  0  0  0  0  0  0  0
   -7.3370    1.7023  -27.1118 H   0  0  0  0  0  0  0  0  0  0  0  0
   -7.1928   -0.0216  -27.4869 H   0  0  0  0  0  0  0  0  0  0  0  0
   -9.0864    1.4709  -24.9988 C   0  0  0  0  0  0  0  0  0  0  0  0
   -8.2798    1.2629  -23.7237 C   0  0  0  0  0  0  0  0  0  0  0  0
   -8.3527   -0.1138  -23.2454 N   0  0  0  0  0  0  0  0  0  0  0  0
   -8.3354   -0.3233  -21.8696 C   0  0  0  0  0  0  0  0  0  0  0  0
   -8.9919    0.3587  -21.1101 O   0  0  0  0  0  0  0  0  0  0  0  0
   -7.4252   -1.4174  -21.2806 C   0  0  0  0  0  0  0  0  0  0  0  0
   -6.5678   -0.8362  -20.1749 C   0  0  0  0  0  0  0  0  0  0  0  0
   -6.8757   -1.0416  -18.8547 C   0  0  0  0  0  0  0  0  0  0  0  0
   -6.1913   -0.5359  -17.7917 N   0  0  0  0  0  0  0  0  0  0  0  0
   -5.1570    0.2237  -18.0626 C   0  0  0  0  0  0  0  0  0  0  0  0
   -4.7225    0.5349  -19.3792 C   0  0  0  0  0  0  0  0  0  0  0  0
   -3.6001    1.3676  -19.6205 C   0  0  0  0  0  0  0  0  0  0  0  0
   -3.2093    1.6597  -20.8996 C   0  0  0  0  0  0  0  0  0  0  0  0
   -3.9294    1.1264  -21.9930 C   0  0  0  0  0  0  0  0  0  0  0  0
   -5.0196    0.3167  -21.7872 C   0  0  0  0  0  0  0  0  0  0  0  0
   -5.4466   -0.0039  -20.4709 C   0  0  0  0  0  0  0  0  0  0  0  0
   -5.5559   -0.0829  -22.6446 H   0  0  0  0  0  0  0  0  0  0  0  0
   -3.6149    1.3614  -23.0051 H   0  0  0  0  0  0  0  0  0  0  0  0
   -2.3537    2.3044  -21.0853 H   0  0  0  0  0  0  0  0  0  0  0  0
   -3.0637    1.7771  -18.7681 H   0  0  0  0  0  0  0  0  0  0  0  0
   -4.6031    0.6294  -17.2139 H   0  0  0  0  0  0  0  0  0  0  0  0
   -7.7285   -1.6605  -18.5811 H   0  0  0  0  0  0  0  0  0  0  0  0
   -6.8073   -1.8973  -22.0493 H   0  0  0  0  0  0  0  0  0  0  0  0
   -8.0808   -2.1834  -20.8474 H   0  0  0  0  0  0  0  0  0  0  0  0
   -8.0632   -1.1425  -24.2257 C   0  0  0  0  0  0  0  0  0  0  0  0
   -8.9044   -0.9470  -25.4897 C   0  0  0  0  0  0  0  0  0  0  0  0
   -9.9548   -1.1532  -25.2524 H   0  0  0  0  0  0  0  0  0  0  0  0
   -8.6124   -1.6876  -26.2384 H   0  0  0  0  0  0  0  0  0  0  0  0
   -6.9929   -1.1807  -24.4903 H   0  0  0  0  0  0  0  0  0  0  0  0
   -8.3117   -2.1042  -23.7795 H   0  0  0  0  0  0  0  0  0  0  0  0
   -8.6528    1.8940  -22.9180 H   0  0  0  0  0  0  0  0  0  0  0  0
   -7.2316    1.5633  -23.9027 H   0  0  0  0  0  0  0  0  0  0  0  0
  -10.1471    1.3860  -24.7906 H   0  0  0  0  0  0  0  0  0  0  0  0
   -8.9468    2.4909  -25.3727 H   0  0  0  0  0  0  0  0  0  0  0  0
   -9.7960    1.6109  -27.6564 H   0  0  0  0  0  0  0  0  0  0  0  0
  -10.8525    0.4468  -26.8480 H   0  0  0  0  0  0  0  0  0  0  0  0
   -9.6533   -0.1143  -28.0196 H   0  0  0  0  0  0  0  0  0  0  0  0
  1  2  1  0
  2  3  1  0
  3  4  1  0
  3  5  1  0
  3  6  1  0
  2  7  1  0
  7  8  1  0
  8  9  1  0
  9 10  1  0
 10 11  2  0
 10 12  1  0
 12 13  1  0
 13 14  2  0
 14 15  1  0
 15 16  2  0
 16 17  1  0
 17 18  2  0
 18 19  1  0
 19 20  2  0
 20 21  1  0
 21 22  2  0
 21 23  1  0
 20 24  1  0
 19 25  1  0
 18 26  1  0
 16 27  1  0
 14 28  1  0
 12 29  1  0
 12 30  1  0
  9 31  1  0
 31 32  1  0
 32 33  1  0
 32 34  1  0
 31 35  1  0
 31 36  1  0
  8 37  1  0
  8 38  1  0
  7 39  1  0
  7 40  1  0
  1 41  1  0
  1 42  1  0
  1 43  1  0
 32  2  1  0
 22 13  1  0
 22 17  1  0
M  END
>  <cnnaffinities>  (87) 
[5.14365, 5.11502, 5.11505, 5.115, 5.11501, 5.20289, 5.08081, 5.08083, 5.08083, 5.17936, 5.17938, 5.17937]

>  <score>  (87) 
5.14365

>  <index>  (87) 
89

>  <Smiles>  (87) 
C(C1(C([H])([H])[H])C(C(N(C(=O)C(c2c(nc(c3c(c(c(c(c23)[H])[H])[H])[H])[H])[H])([H])[H])C(C1([H])[H])([H])[H])([H])[H])([H])[H])([H])([H])[H]

>  <h>  (87) 
<NA>

>  <Training>  (87) 
True

>  <Success>  (87) 
True

>  <enamine_searched>  (87) 
False

>  <enamine_id>  (87) 
nan

$$$$

     RDKit          3D

 64 68  0  0  0  0  0  0  0  0999 V2000
   -8.1234    0.8892  -29.5254 C   0  0  0  0  0  0  0  0  0  0  0  0
   -8.2151   -0.3391  -28.7590 N   0  0  0  0  0  0  0  0  0  0  0  0
   -7.4808   -0.4444  -27.6141 C   0  0  0  0  0  0  0  0  0  0  0  0
   -6.7035    0.4160  -27.2338 O   0  0  0  0  0  0  0  0  0  0  0  0
   -7.6941   -1.7538  -26.8480 C   0  0  0  0  0  0  0  0  0  0  0  0
   -8.5572   -1.5690  -25.6930 N   0  0  0  0  0  0  0  0  0  0  0  0
   -8.0257   -1.0107  -24.4511 C   0  0  0  0  0  0  0  0  0  0  0  0
   -8.7044   -1.6295  -23.1953 C   0  0  2  0  0  0  0  0  0  0  0  0
   -8.3229   -0.7372  -21.9968 C   0  0  0  0  0  0  0  0  0  0  0  0
   -8.7076    0.3900  -21.7749 O   0  0  0  0  0  0  0  0  0  0  0  0
   -7.4080   -1.4199  -21.2105 N   0  0  0  0  0  0  0  0  0  0  0  0
   -6.6375   -0.7968  -20.1920 C   0  0  0  0  0  0  0  0  0  0  0  0
   -6.9265   -1.0577  -18.8780 C   0  0  0  0  0  0  0  0  0  0  0  0
   -6.2359   -0.5631  -17.8201 N   0  0  0  0  0  0  0  0  0  0  0  0
   -5.2099    0.2090  -18.0860 C   0  0  0  0  0  0  0  0  0  0  0  0
   -4.7768    0.5359  -19.4023 C   0  0  0  0  0  0  0  0  0  0  0  0
   -3.6442    1.3605  -19.6258 C   0  0  0  0  0  0  0  0  0  0  0  0
   -3.2318    1.6375  -20.8987 C   0  0  0  0  0  0  0  0  0  0  0  0
   -3.9266    1.0991  -22.0045 C   0  0  0  0  0  0  0  0  0  0  0  0
   -5.0282    0.3024  -21.8157 C   0  0  0  0  0  0  0  0  0  0  0  0
   -5.4933    0.0115  -20.5001 C   0  0  0  0  0  0  0  0  0  0  0  0
   -5.5458   -0.1088  -22.6784 H   0  0  0  0  0  0  0  0  0  0  0  0
   -3.5814    1.3180  -23.0100 H   0  0  0  0  0  0  0  0  0  0  0  0
   -2.3655    2.2696  -21.0682 H   0  0  0  0  0  0  0  0  0  0  0  0
   -3.1212    1.7596  -18.7617 H   0  0  0  0  0  0  0  0  0  0  0  0
   -4.6509    0.6078  -17.2400 H   0  0  0  0  0  0  0  0  0  0  0  0
   -7.7681   -1.7044  -18.6362 H   0  0  0  0  0  0  0  0  0  0  0  0
   -7.0455   -2.7342  -21.7046 C   0  0  0  0  0  0  0  0  0  0  0  0
   -8.1416   -3.0162  -22.7431 C   0  0  2  0  0  0  0  0  0  0  0  0
   -7.7318   -3.9079  -23.9096 C   0  0  0  0  0  0  0  0  0  0  0  0
   -7.4634   -5.6008  -23.4284 S   0  0  0  0  0  0  0  0  0  0  0  0
   -8.4907   -5.9294  -22.4596 O   0  0  0  0  0  0  0  0  0  0  0  0
   -7.3120   -6.3757  -24.6539 O   0  0  0  0  0  0  0  0  0  0  0  0
   -6.0394   -5.6424  -22.5259 N   0  0  0  0  0  0  0  0  0  0  0  0
   -5.8858   -6.9693  -21.8890 C   0  0  0  0  0  0  0  0  0  0  0  0
   -6.7726   -7.1514  -21.2723 H   0  0  0  0  0  0  0  0  0  0  0  0
   -5.7842   -7.7677  -22.6357 H   0  0  0  0  0  0  0  0  0  0  0  0
   -5.0029   -6.9573  -21.2466 H   0  0  0  0  0  0  0  0  0  0  0  0
   -5.2382   -5.3864  -23.0992 H   0  0  0  0  0  0  0  0  0  0  0  0
   -8.5670   -3.9583  -24.6162 H   0  0  0  0  0  0  0  0  0  0  0  0
   -6.8406   -3.5444  -24.4305 H   0  0  0  0  0  0  0  0  0  0  0  0
   -8.9592   -3.5171  -22.2106 H   0  0  0  0  0  0  0  0  0  0  0  0
   -7.0403   -3.4662  -20.8899 H   0  0  0  0  0  0  0  0  0  0  0  0
   -6.0288   -2.7322  -22.1307 H   0  0  0  0  0  0  0  0  0  0  0  0
  -10.2003   -1.6726  -23.4624 C   0  0  0  0  0  0  0  0  0  0  0  0
  -11.0979   -2.0038  -22.4432 C   0  0  0  0  0  0  0  0  0  0  0  0
  -12.4518   -1.7981  -22.6215 C   0  0  0  0  0  0  0  0  0  0  0  0
  -13.2846   -2.1250  -21.6207 F   0  0  0  0  0  0  0  0  0  0  0  0
  -12.9753   -1.2902  -23.8067 C   0  0  0  0  0  0  0  0  0  0  0  0
  -12.0966   -1.1205  -24.8601 C   0  0  0  0  0  0  0  0  0  0  0  0
  -10.7408   -1.3866  -24.7216 C   0  0  0  0  0  0  0  0  0  0  0  0
   -9.8979   -1.4961  -25.9445 C   0  0  0  0  0  0  0  0  0  0  0  0
  -10.3622   -1.5519  -27.0824 O   0  0  0  0  0  0  0  0  0  0  0  0
  -12.4517   -0.8277  -25.8390 H   0  0  0  0  0  0  0  0  0  0  0  0
  -14.0341   -1.0869  -23.9221 H   0  0  0  0  0  0  0  0  0  0  0  0
  -10.7560   -2.3522  -21.4732 H   0  0  0  0  0  0  0  0  0  0  0  0
   -8.2087    0.0741  -24.4103 H   0  0  0  0  0  0  0  0  0  0  0  0
   -6.9380   -1.1520  -24.4399 H   0  0  0  0  0  0  0  0  0  0  0  0
   -8.1536   -2.5042  -27.4993 H   0  0  0  0  0  0  0  0  0  0  0  0
   -6.7243   -2.1312  -26.5118 H   0  0  0  0  0  0  0  0  0  0  0  0
   -9.0701   -0.8835  -28.8060 H   0  0  0  0  0  0  0  0  0  0  0  0
   -8.7845    0.8154  -30.3933 H   0  0  0  0  0  0  0  0  0  0  0  0
   -7.0925    1.0244  -29.8735 H   0  0  0  0  0  0  0  0  0  0  0  0
   -8.4047    1.7631  -28.9206 H   0  0  0  0  0  0  0  0  0  0  0  0
  1  2  1  0
  2  3  1  0
  3  4  2  0
  3  5  1  0
  5  6  1  0
  6  7  1  0
  8  7  1  6
  8  9  1  0
  9 10  2  0
  9 11  1  0
 11 12  1  0
 12 13  2  0
 13 14  1  0
 14 15  2  0
 15 16  1  0
 16 17  2  0
 17 18  1  0
 18 19  2  0
 19 20  1  0
 20 21  2  0
 20 22  1  0
 19 23  1  0
 18 24  1  0
 17 25  1  0
 15 26  1  0
 13 27  1  0
 11 28  1  0
 28 29  1  0
 29 30  1  0
 30 31  1  0
 31 32  2  0
 31 33  2  0
 31 34  1  0
 34 35  1  0
 35 36  1  0
 35 37  1  0
 35 38  1  0
 34 39  1  0
 30 40  1  0
 30 41  1  0
 29 42  1  1
 28 43  1  0
 28 44  1  0
  8 45  1  0
 45 46  2  0
 46 47  1  0
 47 48  1  0
 47 49  2  0
 49 50  1  0
 50 51  2  0
 51 52  1  0
 52 53  2  0
 50 54  1  0
 49 55  1  0
 46 56  1  0
  7 57  1  0
  7 58  1  0
  5 59  1  0
  5 60  1  0
  2 61  1  0
  1 62  1  0
  1 63  1  0
  1 64  1  0
 52  6  1  0
 29  8  1  0
 51 45  1  0
 21 12  1  0
 21 16  1  0
M  END
>  <cnnaffinities>  (88) 
[6.2563, 6.73352]

>  <score>  (88) 
6.2563

>  <index>  (88) 
90

>  <Smiles>  (88) 
C(N(C(=O)C(N1C([C@@]2(C(=O)N(c3c(nc(c4c(c(c(c(c34)[H])[H])[H])[H])[H])[H])C([C@@]2(C(S(=O)(=O)N(C([H])([H])[H])[H])([H])[H])[H])([H])[H])c2c(c(F)c(c(c2C1=O)[H])[H])[H])([H])[H])([H])[H])[H])([H])([H])[H]

>  <h>  (88) 
<NA>

>  <Training>  (88) 
True

>  <Success>  (88) 
True

>  <enamine_searched>  (88) 
False

>  <enamine_id>  (88) 
nan

$$$$

     RDKit          3D

 66 71  0  0  0  0  0  0  0  0999 V2000
   -6.7992    0.0845  -29.3703 C   0  0  0  0  0  0  0  0  0  0  0  0
   -7.1529    0.6189  -28.0735 N   0  0  0  0  0  0  0  0  0  0  0  0
   -6.6001    0.0594  -26.9690 C   0  0  0  0  0  0  0  0  0  0  0  0
   -5.7945   -0.8611  -27.0095 O   0  0  0  0  0  0  0  0  0  0  0  0
   -7.0989    0.6617  -25.6590 C   0  0  0  0  0  0  0  0  0  0  0  0
   -8.2049   -0.1042  -25.1314 N   0  0  0  0  0  0  0  0  0  0  0  0
   -7.9352   -1.3921  -24.5226 C   0  0  0  0  0  0  0  0  0  0  0  0
   -8.7732   -1.5730  -23.2317 C   0  0  2  0  0  0  0  0  0  0  0  0
   -8.2290   -0.6163  -22.1311 C   0  0  0  0  0  0  0  0  0  0  0  0
   -8.4025    0.5752  -22.0339 O   0  0  0  0  0  0  0  0  0  0  0  0
   -7.4583   -1.3652  -21.2610 N   0  0  0  0  0  0  0  0  0  0  0  0
   -6.6473   -0.8070  -20.2382 C   0  0  0  0  0  0  0  0  0  0  0  0
   -6.9340   -1.0801  -18.9223 C   0  0  0  0  0  0  0  0  0  0  0  0
   -6.2542   -0.5886  -17.8563 N   0  0  0  0  0  0  0  0  0  0  0  0
   -5.2284    0.1882  -18.1129 C   0  0  0  0  0  0  0  0  0  0  0  0
   -4.7817    0.5094  -19.4260 C   0  0  0  0  0  0  0  0  0  0  0  0
   -3.6429    1.3331  -19.6320 C   0  0  0  0  0  0  0  0  0  0  0  0
   -3.2049    1.6053  -20.8982 C   0  0  0  0  0  0  0  0  0  0  0  0
   -3.8776    1.0598  -22.0142 C   0  0  0  0  0  0  0  0  0  0  0  0
   -4.9871    0.2686  -21.8409 C   0  0  0  0  0  0  0  0  0  0  0  0
   -5.4870   -0.0135  -20.5348 C   0  0  0  0  0  0  0  0  0  0  0  0
   -5.4858   -0.1443  -22.7144 H   0  0  0  0  0  0  0  0  0  0  0  0
   -3.5114    1.2694  -23.0150 H   0  0  0  0  0  0  0  0  0  0  0  0
   -2.3386    2.2408  -21.0541 H   0  0  0  0  0  0  0  0  0  0  0  0
   -3.1389    1.7408  -18.7585 H   0  0  0  0  0  0  0  0  0  0  0  0
   -4.6779    0.5946  -17.2633 H   0  0  0  0  0  0  0  0  0  0  0  0
   -7.7834   -1.7192  -18.6868 H   0  0  0  0  0  0  0  0  0  0  0  0
   -7.4025   -2.7710  -21.5963 C   0  0  0  0  0  0  0  0  0  0  0  0
   -8.5537   -2.9618  -22.5825 C   0  0  2  0  0  0  0  0  0  0  0  0
   -8.3370   -4.1307  -23.5340 C   0  0  0  0  0  0  0  0  0  0  0  0
   -9.4666   -4.3395  -24.3988 N   0  0  0  0  0  0  0  0  0  0  0  0
   -9.4685   -5.2597  -25.4023 C   0  0  0  0  0  0  0  0  0  0  0  0
   -8.3889   -6.1550  -25.6144 C   0  0  0  0  0  0  0  0  0  0  0  0
   -8.3849   -7.0386  -26.5969 N   0  0  0  0  0  0  0  0  0  0  0  0
   -9.4668   -7.0546  -27.3809 C   0  0  0  0  0  0  0  0  0  0  0  0
  -10.5286   -6.1875  -27.1657 C   0  0  0  0  0  0  0  0  0  0  0  0
  -10.5476   -5.2862  -26.1856 N   0  0  0  0  0  0  0  0  0  0  0  0
  -11.4057   -6.2023  -27.8060 H   0  0  0  0  0  0  0  0  0  0  0  0
   -9.4744   -7.7698  -28.1959 H   0  0  0  0  0  0  0  0  0  0  0  0
   -7.5125   -6.1487  -24.9748 H   0  0  0  0  0  0  0  0  0  0  0  0
  -10.2608   -3.7124  -24.3939 H   0  0  0  0  0  0  0  0  0  0  0  0
   -8.1617   -5.0441  -22.9547 H   0  0  0  0  0  0  0  0  0  0  0  0
   -7.4287   -3.9532  -24.1313 H   0  0  0  0  0  0  0  0  0  0  0  0
   -9.4456   -3.1892  -21.9968 H   0  0  0  0  0  0  0  0  0  0  0  0
   -6.4343   -3.0544  -22.0336 H   0  0  0  0  0  0  0  0  0  0  0  0
   -7.5327   -3.3599  -20.6932 H   0  0  0  0  0  0  0  0  0  0  0  0
  -10.2176   -1.2943  -23.5928 C   0  0  0  0  0  0  0  0  0  0  0  0
  -11.2696   -1.7958  -22.8153 C   0  0  0  0  0  0  0  0  0  0  0  0
  -12.5660   -1.3860  -23.0623 C   0  0  0  0  0  0  0  0  0  0  0  0
  -13.8152   -1.9005  -21.9669 Cl  0  0  0  0  0  0  0  0  0  0  0  0
  -12.8939   -0.5600  -24.1374 C   0  0  0  0  0  0  0  0  0  0  0  0
  -11.8655   -0.1082  -24.9410 C   0  0  0  0  0  0  0  0  0  0  0  0
  -10.5417   -0.4289  -24.6505 C   0  0  0  0  0  0  0  0  0  0  0  0
   -9.4776    0.2699  -25.4353 C   0  0  0  0  0  0  0  0  0  0  0  0
   -9.7243    1.1453  -26.2663 O   0  0  0  0  0  0  0  0  0  0  0  0
  -12.0470    0.5289  -25.7973 H   0  0  0  0  0  0  0  0  0  0  0  0
  -13.9262   -0.2691  -24.3141 H   0  0  0  0  0  0  0  0  0  0  0  0
  -11.1042   -2.4834  -21.9911 H   0  0  0  0  0  0  0  0  0  0  0  0
   -8.1664   -2.2049  -25.2289 H   0  0  0  0  0  0  0  0  0  0  0  0
   -6.8628   -1.4511  -24.3101 H   0  0  0  0  0  0  0  0  0  0  0  0
   -7.4383    1.6935  -25.7977 H   0  0  0  0  0  0  0  0  0  0  0  0
   -6.2867    0.6336  -24.9269 H   0  0  0  0  0  0  0  0  0  0  0  0
   -7.9970    1.1668  -27.9621 H   0  0  0  0  0  0  0  0  0  0  0  0
   -7.3313    0.6330  -30.1492 H   0  0  0  0  0  0  0  0  0  0  0  0
   -5.7229    0.1984  -29.5293 H   0  0  0  0  0  0  0  0  0  0  0  0
   -7.0462   -0.9816  -29.4372 H   0  0  0  0  0  0  0  0  0  0  0  0
  1  2  1  0
  2  3  1  0
  3  4  2  0
  3  5  1  0
  5  6  1  0
  6  7  1  0
  8  7  1  6
  8  9  1  0
  9 10  2  0
  9 11  1  0
 11 12  1  0
 12 13  2  0
 13 14  1  0
 14 15  2  0
 15 16  1  0
 16 17  2  0
 17 18  1  0
 18 19  2  0
 19 20  1  0
 20 21  2  0
 20 22  1  0
 19 23  1  0
 18 24  1  0
 17 25  1  0
 15 26  1  0
 13 27  1  0
 11 28  1  0
 28 29  1  0
 29 30  1  0
 30 31  1  0
 31 32  1  0
 32 33  2  0
 33 34  1  0
 34 35  2  0
 35 36  1  0
 36 37  2  0
 36 38  1  0
 35 39  1  0
 33 40  1  0
 31 41  1  0
 30 42  1  0
 30 43  1  0
 29 44  1  1
 28 45  1  0
 28 46  1  0
  8 47  1  0
 47 48  2  0
 48 49  1  0
 49 50  1  0
 49 51  2  0
 51 52  1  0
 52 53  2  0
 53 54  1  0
 54 55  2  0
 52 56  1  0
 51 57  1  0
 48 58  1  0
  7 59  1  0
  7 60  1  0
  5 61  1  0
  5 62  1  0
  2 63  1  0
  1 64  1  0
  1 65  1  0
  1 66  1  0
 54  6  1  0
 29  8  1  0
 37 32  1  0
 53 47  1  0
 21 12  1  0
 21 16  1  0
M  END
>  <cnnaffinities>  (89) 
[6.93007, 6.44576, 7.0698]

>  <score>  (89) 
6.93007

>  <index>  (89) 
91

>  <Smiles>  (89) 
C(N(C(=O)C(N1C([C@@]2(C(=O)N(c3c(nc(c4c(c(c(c(c34)[H])[H])[H])[H])[H])[H])C([C@@]2(C(N(c2c(nc(c(n2)[H])[H])[H])[H])([H])[H])[H])([H])[H])c2c(c(Cl)c(c(c2C1=O)[H])[H])[H])([H])[H])([H])[H])[H])([H])([H])[H]

>  <h>  (89) 
<NA>

>  <Training>  (89) 
True

>  <Success>  (89) 
True

>  <enamine_searched>  (89) 
False

>  <enamine_id>  (89) 
nan

$$$$

     RDKit          3D

 60 65  0  0  0  0  0  0  0  0999 V2000
   -7.8684   -6.2915  -23.9429 C   0  0  0  0  0  0  0  0  0  0  0  0
   -8.0934   -5.3161  -22.9598 O   0  0  0  0  0  0  0  0  0  0  0  0
   -8.3836   -4.0743  -23.5429 C   0  0  0  0  0  0  0  0  0  0  0  0
   -8.5632   -3.0420  -22.4456 C   0  0  1  0  0  0  0  0  0  0  0  0
   -7.2987   -2.7471  -21.6293 C   0  0  0  0  0  0  0  0  0  0  0  0
   -7.4674   -1.3647  -21.2353 N   0  0  0  0  0  0  0  0  0  0  0  0
   -6.6654   -0.7869  -20.2157 C   0  0  0  0  0  0  0  0  0  0  0  0
   -6.9495   -1.0562  -18.8999 C   0  0  0  0  0  0  0  0  0  0  0  0
   -6.2531   -0.5710  -17.8428 N   0  0  0  0  0  0  0  0  0  0  0  0
   -5.2245    0.1978  -18.1033 C   0  0  0  0  0  0  0  0  0  0  0  0
   -4.7867    0.5202  -19.4175 C   0  0  0  0  0  0  0  0  0  0  0  0
   -3.6480    1.3366  -19.6370 C   0  0  0  0  0  0  0  0  0  0  0  0
   -3.2181    1.6025  -20.9065 C   0  0  0  0  0  0  0  0  0  0  0  0
   -3.9026    1.0509  -22.0137 C   0  0  0  0  0  0  0  0  0  0  0  0
   -5.0128    0.2625  -21.8285 C   0  0  0  0  0  0  0  0  0  0  0  0
   -5.5036   -0.0042  -20.5205 C   0  0  0  0  0  0  0  0  0  0  0  0
   -5.5194   -0.1770  -22.6844 H   0  0  0  0  0  0  0  0  0  0  0  0
   -3.5442    1.2639  -23.0187 H   0  0  0  0  0  0  0  0  0  0  0  0
   -2.3459    2.2301  -21.0693 H   0  0  0  0  0  0  0  0  0  0  0  0
   -3.1332    1.7405  -18.7691 H   0  0  0  0  0  0  0  0  0  0  0  0
   -4.6669    0.6007  -17.2552 H   0  0  0  0  0  0  0  0  0  0  0  0
   -7.7891   -1.7026  -18.6477 H   0  0  0  0  0  0  0  0  0  0  0  0
   -8.4910   -0.6955  -21.8830 C   0  0  0  0  0  0  0  0  0  0  0  0
   -8.8327    0.4378  -21.6336 O   0  0  0  0  0  0  0  0  0  0  0  0
   -9.0898   -1.6695  -22.9454 C   0  0  1  0  0  0  0  0  0  0  0  0
   -8.5338   -1.3326  -24.3563 C   0  0  0  0  0  0  0  0  0  0  0  0
   -9.1230   -0.1237  -24.8997 N   0  0  0  0  0  0  0  0  0  0  0  0
   -8.2942    0.8904  -25.5366 C   0  0  0  0  0  0  0  0  0  0  0  0
   -7.7542    1.9655  -24.6158 C   0  0  0  0  0  0  0  0  0  0  0  0
   -8.4393    3.0359  -23.9805 C   0  0  0  0  0  0  0  0  0  0  0  0
   -7.6184    3.8269  -23.2948 N   0  0  0  0  0  0  0  0  0  0  0  0
   -6.4143    3.2827  -23.4825 N   0  0  0  0  0  0  0  0  0  0  0  0
   -6.4353    2.1790  -24.2645 C   0  0  0  0  0  0  0  0  0  0  0  0
   -5.5207    1.6460  -24.4874 H   0  0  0  0  0  0  0  0  0  0  0  0
   -5.6053    3.6845  -23.0370 H   0  0  0  0  0  0  0  0  0  0  0  0
   -9.4970    3.2742  -23.9875 H   0  0  0  0  0  0  0  0  0  0  0  0
   -8.9255    1.3361  -26.3130 H   0  0  0  0  0  0  0  0  0  0  0  0
   -7.4626    0.3872  -26.0438 H   0  0  0  0  0  0  0  0  0  0  0  0
  -10.4832   -0.0117  -25.0003 C   0  0  0  0  0  0  0  0  0  0  0  0
  -11.0253    0.6820  -25.8525 O   0  0  0  0  0  0  0  0  0  0  0  0
  -11.2555   -0.7827  -23.9801 C   0  0  0  0  0  0  0  0  0  0  0  0
  -12.6447   -0.7018  -24.0199 C   0  0  0  0  0  0  0  0  0  0  0  0
  -13.4222   -1.3316  -23.0688 C   0  0  0  0  0  0  0  0  0  0  0  0
  -12.7663   -2.0828  -22.0957 C   0  0  0  0  0  0  0  0  0  0  0  0
  -13.6751   -2.9369  -20.8859 Cl  0  0  0  0  0  0  0  0  0  0  0  0
  -11.3974   -2.2331  -22.0908 C   0  0  0  0  0  0  0  0  0  0  0  0
  -10.6003   -1.5847  -23.0364 C   0  0  0  0  0  0  0  0  0  0  0  0
  -10.9704   -2.8726  -21.3331 H   0  0  0  0  0  0  0  0  0  0  0  0
  -14.5029   -1.2568  -23.0804 H   0  0  0  0  0  0  0  0  0  0  0  0
  -13.1003   -0.1047  -24.8015 H   0  0  0  0  0  0  0  0  0  0  0  0
   -8.7441   -2.1706  -25.0397 H   0  0  0  0  0  0  0  0  0  0  0  0
   -7.4504   -1.1953  -24.3107 H   0  0  0  0  0  0  0  0  0  0  0  0
   -6.3732   -2.9108  -22.1999 H   0  0  0  0  0  0  0  0  0  0  0  0
   -7.2328   -3.3815  -20.7460 H   0  0  0  0  0  0  0  0  0  0  0  0
   -9.2919   -3.4652  -21.7544 H   0  0  0  0  0  0  0  0  0  0  0  0
   -9.3082   -4.1361  -24.1477 H   0  0  0  0  0  0  0  0  0  0  0  0
   -7.5620   -3.7702  -24.2171 H   0  0  0  0  0  0  0  0  0  0  0  0
   -8.7452   -6.4186  -24.5972 H   0  0  0  0  0  0  0  0  0  0  0  0
   -7.6617   -7.2362  -23.4367 H   0  0  0  0  0  0  0  0  0  0  0  0
   -7.0086   -6.0315  -24.5801 H   0  0  0  0  0  0  0  0  0  0  0  0
  1  2  1  0
  2  3  1  0
  3  4  1  0
  4  5  1  0
  5  6  1  0
  6  7  1  0
  7  8  2  0
  8  9  1  0
  9 10  2  0
 10 11  1  0
 11 12  2  0
 12 13  1  0
 13 14  2  0
 14 15  1  0
 15 16  2  0
 15 17  1  0
 14 18  1  0
 13 19  1  0
 12 20  1  0
 10 21  1  0
  8 22  1  0
  6 23  1  0
 23 24  2  0
 23 25  1  0
 25 26  1  6
 26 27  1  0
 27 28  1  0
 28 29  1  0
 29 30  1  0
 30 31  2  0
 31 32  1  0
 32 33  1  0
 33 34  1  0
 32 35  1  0
 30 36  1  0
 28 37  1  0
 28 38  1  0
 27 39  1  0
 39 40  2  0
 39 41  1  0
 41 42  2  0
 42 43  1  0
 43 44  2  0
 44 45  1  0
 44 46  1  0
 46 47  2  0
 46 48  1  0
 43 49  1  0
 42 50  1  0
 26 51  1  0
 26 52  1  0
  5 53  1  0
  5 54  1  0
  4 55  1  1
  3 56  1  0
  3 57  1  0
  1 58  1  0
  1 59  1  0
  1 60  1  0
 25  4  1  0
 33 29  2  0
 47 41  1  0
 16  7  1  0
 47 25  1  0
 16 11  1  0
M  END
>  <cnnaffinities>  (90) 
[7.14851, 6.93503]

>  <score>  (90) 
7.14851

>  <index>  (90) 
92

>  <Smiles>  (90) 
C(OC([C@]1(C(N(c2c(nc(c3c(c(c(c(c23)[H])[H])[H])[H])[H])[H])C(=O)[C@]21C(N(C(c1c(nn(c1[H])[H])[H])([H])[H])C(=O)c1c(c(c(Cl)c(c21)[H])[H])[H])([H])[H])([H])[H])[H])([H])[H])([H])([H])[H]

>  <h>  (90) 
<NA>

>  <Training>  (90) 
True

>  <Success>  (90) 
True

>  <enamine_searched>  (90) 
False

>  <enamine_id>  (90) 
nan

$$$$

     RDKit          3D

 62 67  0  0  0  0  0  0  0  0999 V2000
   -4.6103    1.6797  -27.3609 C   0  0  0  0  0  0  0  0  0  0  0  0
   -4.6449    1.2674  -25.8921 C   0  0  0  0  0  0  0  0  0  0  0  0
   -5.6977    1.9160  -25.1300 N   0  0  0  0  0  0  0  0  0  0  0  0
   -5.3864    3.0017  -24.4044 N   0  0  0  0  0  0  0  0  0  0  0  0
   -6.5378    3.4078  -23.8842 C   0  0  0  0  0  0  0  0  0  0  0  0
   -7.6077    2.5778  -24.2822 C   0  0  0  0  0  0  0  0  0  0  0  0
   -7.0240    1.6234  -25.0891 C   0  0  0  0  0  0  0  0  0  0  0  0
   -7.6279    0.4622  -25.8291 C   0  0  0  0  0  0  0  0  0  0  0  0
   -8.6294   -0.2290  -25.0359 N   0  0  0  0  0  0  0  0  0  0  0  0
   -8.2893   -1.4633  -24.3592 C   0  0  0  0  0  0  0  0  0  0  0  0
   -9.0253   -1.6169  -23.0045 C   0  0  2  0  0  0  0  0  0  0  0  0
   -8.4286   -0.6280  -21.9646 C   0  0  0  0  0  0  0  0  0  0  0  0
   -8.6973    0.5414  -21.7814 O   0  0  0  0  0  0  0  0  0  0  0  0
   -7.4596   -1.3148  -21.2670 N   0  0  0  0  0  0  0  0  0  0  0  0
   -6.6877   -0.7370  -20.2357 C   0  0  0  0  0  0  0  0  0  0  0  0
   -6.9981   -1.0147  -18.9272 C   0  0  0  0  0  0  0  0  0  0  0  0
   -6.3142   -0.5465  -17.8568 N   0  0  0  0  0  0  0  0  0  0  0  0
   -5.2703    0.2076  -18.1092 C   0  0  0  0  0  0  0  0  0  0  0  0
   -4.8176    0.5440  -19.4164 C   0  0  0  0  0  0  0  0  0  0  0  0
   -3.6567    1.3349  -19.6185 C   0  0  0  0  0  0  0  0  0  0  0  0
   -3.1979    1.5853  -20.8812 C   0  0  0  0  0  0  0  0  0  0  0  0
   -3.8784    1.0569  -22.0027 C   0  0  0  0  0  0  0  0  0  0  0  0
   -5.0180    0.3092  -21.8350 C   0  0  0  0  0  0  0  0  0  0  0  0
   -5.5246    0.0425  -20.5315 C   0  0  0  0  0  0  0  0  0  0  0  0
   -5.5194   -0.1124  -22.7011 H   0  0  0  0  0  0  0  0  0  0  0  0
   -3.4948    1.2418  -23.0041 H   0  0  0  0  0  0  0  0  0  0  0  0
   -2.3064    2.1881  -21.0277 H   0  0  0  0  0  0  0  0  0  0  0  0
   -3.1455    1.7180  -18.7400 H   0  0  0  0  0  0  0  0  0  0  0  0
   -4.7084    0.5747  -17.2522 H   0  0  0  0  0  0  0  0  0  0  0  0
   -7.8565   -1.6497  -18.7074 H   0  0  0  0  0  0  0  0  0  0  0  0
   -7.3677   -2.7236  -21.5819 C   0  0  0  0  0  0  0  0  0  0  0  0
   -8.6696   -2.9867  -22.3529 C   0  0  2  0  0  0  0  0  0  0  0  0
   -8.6242   -4.2083  -23.2742 C   0  0  0  0  0  0  0  0  0  0  0  0
   -7.7681   -4.1769  -23.9603 H   0  0  0  0  0  0  0  0  0  0  0  0
   -8.5416   -5.1336  -22.6914 H   0  0  0  0  0  0  0  0  0  0  0  0
   -9.5332   -4.2817  -23.8837 H   0  0  0  0  0  0  0  0  0  0  0  0
   -9.4344   -3.1728  -21.5932 H   0  0  0  0  0  0  0  0  0  0  0  0
   -6.4661   -2.9400  -22.1795 H   0  0  0  0  0  0  0  0  0  0  0  0
   -7.2886   -3.2997  -20.6543 H   0  0  0  0  0  0  0  0  0  0  0  0
  -10.5049   -1.4142  -23.2676 C   0  0  0  0  0  0  0  0  0  0  0  0
  -11.5002   -2.0034  -22.4694 C   0  0  0  0  0  0  0  0  0  0  0  0
  -12.8275   -1.7139  -22.7059 C   0  0  0  0  0  0  0  0  0  0  0  0
  -13.7611   -2.1943  -21.8653 F   0  0  0  0  0  0  0  0  0  0  0  0
  -13.2453   -0.9409  -23.7815 C   0  0  0  0  0  0  0  0  0  0  0  0
  -12.2766   -0.3589  -24.5716 C   0  0  0  0  0  0  0  0  0  0  0  0
  -10.9241   -0.5751  -24.3102 C   0  0  0  0  0  0  0  0  0  0  0  0
   -9.9339    0.1513  -25.1725 C   0  0  0  0  0  0  0  0  0  0  0  0
  -10.2655    1.0394  -25.9433 O   0  0  0  0  0  0  0  0  0  0  0  0
  -12.5314    0.2865  -25.4057 H   0  0  0  0  0  0  0  0  0  0  0  0
  -14.3036   -0.7919  -23.9395 H   0  0  0  0  0  0  0  0  0  0  0  0
  -11.2940   -2.7169  -21.6820 H   0  0  0  0  0  0  0  0  0  0  0  0
   -8.5857   -2.3098  -24.9921 H   0  0  0  0  0  0  0  0  0  0  0  0
   -7.2063   -1.5074  -24.2015 H   0  0  0  0  0  0  0  0  0  0  0  0
   -6.8485   -0.2436  -26.1533 H   0  0  0  0  0  0  0  0  0  0  0  0
   -8.1273    0.8241  -26.7338 H   0  0  0  0  0  0  0  0  0  0  0  0
   -8.6529    2.6659  -24.0065 H   0  0  0  0  0  0  0  0  0  0  0  0
   -6.5507    4.2892  -23.2550 H   0  0  0  0  0  0  0  0  0  0  0  0
   -4.7342    0.1784  -25.7879 H   0  0  0  0  0  0  0  0  0  0  0  0
   -3.7230    1.5705  -25.3906 H   0  0  0  0  0  0  0  0  0  0  0  0
   -4.4965    2.7643  -27.4482 H   0  0  0  0  0  0  0  0  0  0  0  0
   -3.7567    1.2016  -27.8522 H   0  0  0  0  0  0  0  0  0  0  0  0
   -5.5224    1.3849  -27.8940 H   0  0  0  0  0  0  0  0  0  0  0  0
  1  2  1  0
  2  3  1  0
  3  4  1  0
  4  5  2  0
  5  6  1  0
  6  7  2  0
  7  8  1  0
  8  9  1  0
  9 10  1  0
 11 10  1  6
 11 12  1  0
 12 13  2  0
 12 14  1  0
 14 15  1  0
 15 16  2  0
 16 17  1  0
 17 18  2  0
 18 19  1  0
 19 20  2  0
 20 21  1  0
 21 22  2  0
 22 23  1  0
 23 24  2  0
 23 25  1  0
 22 26  1  0
 21 27  1  0
 20 28  1  0
 18 29  1  0
 16 30  1  0
 14 31  1  0
 31 32  1  0
 32 33  1  0
 33 34  1  0
 33 35  1  0
 33 36  1  0
 32 37  1  1
 31 38  1  0
 31 39  1  0
 11 40  1  0
 40 41  2  0
 41 42  1  0
 42 43  1  0
 42 44  2  0
 44 45  1  0
 45 46  2  0
 46 47  1  0
 47 48  2  0
 45 49  1  0
 44 50  1  0
 41 51  1  0
 10 52  1  0
 10 53  1  0
  8 54  1  0
  8 55  1  0
  6 56  1  0
  5 57  1  0
  2 58  1  0
  2 59  1  0
  1 60  1  0
  1 61  1  0
  1 62  1  0
  7  3  1  0
 47  9  1  0
 32 11  1  0
 46 40  1  0
 24 15  1  0
 24 19  1  0
M  END
>  <cnnaffinities>  (91) 
[6.90309, 6.584, 6.6394, 6.7313]

>  <score>  (91) 
6.90309

>  <index>  (91) 
93

>  <Smiles>  (91) 
C(C(n1nc(c(c1C(N1C([C@@]2(C(=O)N(c3c(nc(c4c(c(c(c(c34)[H])[H])[H])[H])[H])[H])C([C@@]2(C([H])([H])[H])[H])([H])[H])c2c(c(F)c(c(c2C1=O)[H])[H])[H])([H])[H])([H])[H])[H])[H])([H])[H])([H])([H])[H]

>  <h>  (91) 
<NA>

>  <Training>  (91) 
True

>  <Success>  (91) 
True

>  <enamine_searched>  (91) 
False

>  <enamine_id>  (91) 
nan

$$$$

     RDKit          3D

 66 71  0  0  0  0  0  0  0  0999 V2000
   -6.8145    0.0956  -29.3774 C   0  0  0  0  0  0  0  0  0  0  0  0
   -7.1587    0.6277  -28.0765 N   0  0  0  0  0  0  0  0  0  0  0  0
   -6.6091    0.0565  -26.9747 C   0  0  0  0  0  0  0  0  0  0  0  0
   -5.8121   -0.8729  -27.0191 O   0  0  0  0  0  0  0  0  0  0  0  0
   -7.1004    0.6568  -25.6607 C   0  0  0  0  0  0  0  0  0  0  0  0
   -8.2069   -0.1080  -25.1326 N   0  0  0  0  0  0  0  0  0  0  0  0
   -7.9386   -1.3932  -24.5197 C   0  0  0  0  0  0  0  0  0  0  0  0
   -8.7740   -1.5714  -23.2277 C   0  0  2  0  0  0  0  0  0  0  0  0
   -8.2259   -0.6145  -22.1291 C   0  0  0  0  0  0  0  0  0  0  0  0
   -8.3960    0.5786  -22.0350 O   0  0  0  0  0  0  0  0  0  0  0  0
   -7.4578   -1.3624  -21.2560 N   0  0  0  0  0  0  0  0  0  0  0  0
   -6.6445   -0.8059  -20.2345 C   0  0  0  0  0  0  0  0  0  0  0  0
   -6.9309   -1.0786  -18.9172 C   0  0  0  0  0  0  0  0  0  0  0  0
   -6.2508   -0.5867  -17.8522 N   0  0  0  0  0  0  0  0  0  0  0  0
   -5.2249    0.1907  -18.1096 C   0  0  0  0  0  0  0  0  0  0  0  0
   -4.7790    0.5101  -19.4240 C   0  0  0  0  0  0  0  0  0  0  0  0
   -3.6399    1.3342  -19.6305 C   0  0  0  0  0  0  0  0  0  0  0  0
   -3.2041    1.6058  -20.8990 C   0  0  0  0  0  0  0  0  0  0  0  0
   -3.8773    1.0609  -22.0137 C   0  0  0  0  0  0  0  0  0  0  0  0
   -4.9872    0.2687  -21.8397 C   0  0  0  0  0  0  0  0  0  0  0  0
   -5.4843   -0.0120  -20.5309 C   0  0  0  0  0  0  0  0  0  0  0  0
   -5.4865   -0.1444  -22.7121 H   0  0  0  0  0  0  0  0  0  0  0  0
   -3.5127    1.2699  -23.0157 H   0  0  0  0  0  0  0  0  0  0  0  0
   -2.3380    2.2413  -21.0560 H   0  0  0  0  0  0  0  0  0  0  0  0
   -3.1349    1.7424  -18.7593 H   0  0  0  0  0  0  0  0  0  0  0  0
   -4.6735    0.5968  -17.2617 H   0  0  0  0  0  0  0  0  0  0  0  0
   -7.7812   -1.7172  -18.6832 H   0  0  0  0  0  0  0  0  0  0  0  0
   -7.4061   -2.7678  -21.5901 C   0  0  0  0  0  0  0  0  0  0  0  0
   -8.5585   -2.9584  -22.5741 C   0  0  2  0  0  0  0  0  0  0  0  0
   -8.3335   -4.1302  -23.5172 C   0  0  0  0  0  0  0  0  0  0  0  0
   -9.4537   -4.3522  -24.3886 N   0  0  0  0  0  0  0  0  0  0  0  0
   -9.4443   -5.2748  -25.3759 C   0  0  0  0  0  0  0  0  0  0  0  0
   -8.3721   -6.1656  -25.5778 C   0  0  0  0  0  0  0  0  0  0  0  0
   -8.4948   -7.0393  -26.6377 C   0  0  0  0  0  0  0  0  0  0  0  0
   -9.5548   -7.0738  -27.4513 N   0  0  0  0  0  0  0  0  0  0  0  0
  -10.5064   -6.2014  -27.1465 C   0  0  0  0  0  0  0  0  0  0  0  0
  -10.5247   -5.3079  -26.1646 N   0  0  0  0  0  0  0  0  0  0  0  0
  -11.3898   -6.2044  -27.7780 H   0  0  0  0  0  0  0  0  0  0  0  0
   -7.7038   -7.7504  -26.8608 H   0  0  0  0  0  0  0  0  0  0  0  0
   -7.4891   -6.1750  -24.9509 H   0  0  0  0  0  0  0  0  0  0  0  0
  -10.2544   -3.7364  -24.3964 H   0  0  0  0  0  0  0  0  0  0  0  0
   -7.4261   -3.9518  -24.1137 H   0  0  0  0  0  0  0  0  0  0  0  0
   -8.1609   -5.0404  -22.9335 H   0  0  0  0  0  0  0  0  0  0  0  0
   -9.4489   -3.1843  -21.9849 H   0  0  0  0  0  0  0  0  0  0  0  0
   -7.5341   -3.3544  -20.6853 H   0  0  0  0  0  0  0  0  0  0  0  0
   -6.4391   -3.0533  -22.0289 H   0  0  0  0  0  0  0  0  0  0  0  0
  -10.2190   -1.2938  -23.5864 C   0  0  0  0  0  0  0  0  0  0  0  0
  -11.2700   -1.7884  -22.8014 C   0  0  0  0  0  0  0  0  0  0  0  0
  -12.5663   -1.3759  -23.0479 C   0  0  0  0  0  0  0  0  0  0  0  0
  -13.8135   -1.8878  -21.9470 Cl  0  0  0  0  0  0  0  0  0  0  0  0
  -12.8962   -0.5493  -24.1236 C   0  0  0  0  0  0  0  0  0  0  0  0
  -11.8677   -0.1041  -24.9311 C   0  0  0  0  0  0  0  0  0  0  0  0
  -10.5439   -0.4315  -24.6466 C   0  0  0  0  0  0  0  0  0  0  0  0
   -9.4814    0.2702  -25.4317 C   0  0  0  0  0  0  0  0  0  0  0  0
   -9.7311    1.1463  -26.2555 O   0  0  0  0  0  0  0  0  0  0  0  0
  -12.0534    0.5343  -25.7861 H   0  0  0  0  0  0  0  0  0  0  0  0
  -13.9289   -0.2636  -24.2994 H   0  0  0  0  0  0  0  0  0  0  0  0
  -11.1030   -2.4763  -21.9765 H   0  0  0  0  0  0  0  0  0  0  0  0
   -8.1773   -2.2053  -25.2224 H   0  0  0  0  0  0  0  0  0  0  0  0
   -6.8666   -1.4582  -24.3093 H   0  0  0  0  0  0  0  0  0  0  0  0
   -7.4361    1.6905  -25.7959 H   0  0  0  0  0  0  0  0  0  0  0  0
   -6.2830    0.6224  -24.9332 H   0  0  0  0  0  0  0  0  0  0  0  0
   -7.9975    1.1862  -27.9654 H   0  0  0  0  0  0  0  0  0  0  0  0
   -5.7374    0.1999  -29.5400 H   0  0  0  0  0  0  0  0  0  0  0  0
   -7.3423    0.6509  -30.1553 H   0  0  0  0  0  0  0  0  0  0  0  0
   -7.0719   -0.9680  -29.4481 H   0  0  0  0  0  0  0  0  0  0  0  0
  1  2  1  0
  2  3  1  0
  3  4  2  0
  3  5  1  0
  5  6  1  0
  6  7  1  0
  8  7  1  6
  8  9  1  0
  9 10  2  0
  9 11  1  0
 11 12  1  0
 12 13  2  0
 13 14  1  0
 14 15  2  0
 15 16  1  0
 16 17  2  0
 17 18  1  0
 18 19  2  0
 19 20  1  0
 20 21  2  0
 20 22  1  0
 19 23  1  0
 18 24  1  0
 17 25  1  0
 15 26  1  0
 13 27  1  0
 11 28  1  0
 28 29  1  0
 29 30  1  0
 30 31  1  0
 31 32  1  0
 32 33  2  0
 33 34  1  0
 34 35  2  0
 35 36  1  0
 36 37  2  0
 36 38  1  0
 34 39  1  0
 33 40  1  0
 31 41  1  0
 30 42  1  0
 30 43  1  0
 29 44  1  1
 28 45  1  0
 28 46  1  0
  8 47  1  0
 47 48  2  0
 48 49  1  0
 49 50  1  0
 49 51  2  0
 51 52  1  0
 52 53  2  0
 53 54  1  0
 54 55  2  0
 52 56  1  0
 51 57  1  0
 48 58  1  0
  7 59  1  0
  7 60  1  0
  5 61  1  0
  5 62  1  0
  2 63  1  0
  1 64  1  0
  1 65  1  0
  1 66  1  0
 54  6  1  0
 29  8  1  0
 37 32  1  0
 53 47  1  0
 21 12  1  0
 21 16  1  0
M  END
>  <cnnaffinities>  (92) 
[6.88147, 6.51965, 6.81719]

>  <score>  (92) 
6.88147

>  <index>  (92) 
95

>  <Smiles>  (92) 
C(N(C(=O)C(N1C([C@@]2(C(=O)N(c3c(nc(c4c(c(c(c(c34)[H])[H])[H])[H])[H])[H])C([C@@]2(C(N(c2c(c(nc(n2)[H])[H])[H])[H])([H])[H])[H])([H])[H])c2c(c(Cl)c(c(c2C1=O)[H])[H])[H])([H])[H])([H])[H])[H])([H])([H])[H]

>  <h>  (92) 
<NA>

>  <Training>  (92) 
True

>  <Success>  (92) 
True

>  <enamine_searched>  (92) 
False

>  <enamine_id>  (92) 
nan

$$$$

     RDKit          3D

 66 70  0  0  0  0  0  0  0  0999 V2000
   -6.9458    3.4135  -23.1344 C   0  0  0  0  0  0  0  0  0  0  0  0
   -7.6862    2.6385  -24.1164 N   0  0  0  0  0  0  0  0  0  0  0  0
   -7.0581    1.6299  -24.7770 C   0  0  0  0  0  0  0  0  0  0  0  0
   -5.8577    1.4326  -24.6832 O   0  0  0  0  0  0  0  0  0  0  0  0
   -7.9480    0.7651  -25.6759 C   0  0  0  0  0  0  0  0  0  0  0  0
   -8.8562   -0.0693  -24.9154 N   0  0  0  0  0  0  0  0  0  0  0  0
   -8.3901   -1.3408  -24.3861 C   0  0  0  0  0  0  0  0  0  0  0  0
   -9.0264   -1.6415  -22.9989 C   0  0  2  0  0  0  0  0  0  0  0  0
   -8.4037   -0.6541  -21.9794 C   0  0  0  0  0  0  0  0  0  0  0  0
   -8.6416    0.5270  -21.8737 O   0  0  0  0  0  0  0  0  0  0  0  0
   -7.4868   -1.3519  -21.2161 N   0  0  0  0  0  0  0  0  0  0  0  0
   -6.6735   -0.7708  -20.2103 C   0  0  0  0  0  0  0  0  0  0  0  0
   -6.9464   -1.0499  -18.8943 C   0  0  0  0  0  0  0  0  0  0  0  0
   -6.2484   -0.5703  -17.8382 N   0  0  0  0  0  0  0  0  0  0  0  0
   -5.2210    0.2009  -18.1024 C   0  0  0  0  0  0  0  0  0  0  0  0
   -4.7914    0.5291  -19.4183 C   0  0  0  0  0  0  0  0  0  0  0  0
   -3.6477    1.3422  -19.6381 C   0  0  0  0  0  0  0  0  0  0  0  0
   -3.2265    1.6178  -20.9093 C   0  0  0  0  0  0  0  0  0  0  0  0
   -3.9276    1.0908  -22.0174 C   0  0  0  0  0  0  0  0  0  0  0  0
   -5.0412    0.3054  -21.8316 C   0  0  0  0  0  0  0  0  0  0  0  0
   -5.5187    0.0178  -20.5213 C   0  0  0  0  0  0  0  0  0  0  0  0
   -5.5511   -0.0920  -22.7033 H   0  0  0  0  0  0  0  0  0  0  0  0
   -3.6025    1.3204  -23.0280 H   0  0  0  0  0  0  0  0  0  0  0  0
   -2.3500    2.2383  -21.0744 H   0  0  0  0  0  0  0  0  0  0  0  0
   -3.1248    1.7368  -18.7710 H   0  0  0  0  0  0  0  0  0  0  0  0
   -4.6615    0.6007  -17.2558 H   0  0  0  0  0  0  0  0  0  0  0  0
   -7.7856   -1.7010  -18.6526 H   0  0  0  0  0  0  0  0  0  0  0  0
   -7.3359   -2.7445  -21.5801 C   0  0  0  0  0  0  0  0  0  0  0  0
   -8.5742   -3.0211  -22.4433 C   0  0  2  0  0  0  0  0  0  0  0  0
   -8.3531   -4.0749  -23.5155 C   0  0  0  0  0  0  0  0  0  0  0  0
   -8.1216   -5.3247  -22.9099 O   0  0  0  0  0  0  0  0  0  0  0  0
   -7.6099   -6.2934  -23.8136 C   0  0  0  0  0  0  0  0  0  0  0  0
   -8.1452   -7.6511  -23.4030 C   0  0  0  0  0  0  0  0  0  0  0  0
   -9.2273   -7.7151  -23.4984 H   0  0  0  0  0  0  0  0  0  0  0  0
   -7.8669   -7.8479  -22.3633 H   0  0  0  0  0  0  0  0  0  0  0  0
   -7.7023   -8.4131  -24.0472 H   0  0  0  0  0  0  0  0  0  0  0  0
   -6.0862   -6.3191  -23.7864 C   0  0  0  0  0  0  0  0  0  0  0  0
   -5.7280   -7.0971  -24.4704 H   0  0  0  0  0  0  0  0  0  0  0  0
   -5.7464   -6.5666  -22.7758 H   0  0  0  0  0  0  0  0  0  0  0  0
   -5.6394   -5.3640  -24.0826 H   0  0  0  0  0  0  0  0  0  0  0  0
   -7.9507   -6.0494  -24.8336 H   0  0  0  0  0  0  0  0  0  0  0  0
   -7.4870   -3.7878  -24.1369 H   0  0  0  0  0  0  0  0  0  0  0  0
   -9.2370   -4.1271  -24.1767 H   0  0  0  0  0  0  0  0  0  0  0  0
   -9.3467   -3.4078  -21.7768 H   0  0  0  0  0  0  0  0  0  0  0  0
   -6.3919   -2.9299  -22.1164 H   0  0  0  0  0  0  0  0  0  0  0  0
   -7.3143   -3.3584  -20.6809 H   0  0  0  0  0  0  0  0  0  0  0  0
  -10.5334   -1.4846  -23.1445 C   0  0  0  0  0  0  0  0  0  0  0  0
  -11.4304   -2.1658  -22.3087 C   0  0  0  0  0  0  0  0  0  0  0  0
  -12.7959   -1.9805  -22.4305 C   0  0  0  0  0  0  0  0  0  0  0  0
  -13.8468   -2.7780  -21.2886 Cl  0  0  0  0  0  0  0  0  0  0  0  0
  -13.3344   -1.1977  -23.4517 C   0  0  0  0  0  0  0  0  0  0  0  0
  -12.4607   -0.5365  -24.2952 C   0  0  0  0  0  0  0  0  0  0  0  0
  -11.0789   -0.6250  -24.1082 C   0  0  0  0  0  0  0  0  0  0  0  0
  -10.1905    0.2218  -24.9699 C   0  0  0  0  0  0  0  0  0  0  0  0
  -10.6307    1.1249  -25.6722 O   0  0  0  0  0  0  0  0  0  0  0  0
  -12.8311    0.0976  -25.0948 H   0  0  0  0  0  0  0  0  0  0  0  0
  -14.4072   -1.1039  -23.5786 H   0  0  0  0  0  0  0  0  0  0  0  0
  -11.0822   -2.8492  -21.5458 H   0  0  0  0  0  0  0  0  0  0  0  0
   -7.3008   -1.2934  -24.2862 H   0  0  0  0  0  0  0  0  0  0  0  0
   -8.6372   -2.1434  -25.0967 H   0  0  0  0  0  0  0  0  0  0  0  0
   -7.3068    0.1472  -26.3097 H   0  0  0  0  0  0  0  0  0  0  0  0
   -8.5688    1.3930  -26.3211 H   0  0  0  0  0  0  0  0  0  0  0  0
   -8.6917    2.6103  -24.0377 H   0  0  0  0  0  0  0  0  0  0  0  0
   -6.5110    2.7573  -22.3670 H   0  0  0  0  0  0  0  0  0  0  0  0
   -7.6190    4.1315  -22.6612 H   0  0  0  0  0  0  0  0  0  0  0  0
   -6.1338    3.9625  -23.6227 H   0  0  0  0  0  0  0  0  0  0  0  0
  1  2  1  0
  2  3  1  0
  3  4  2  0
  3  5  1  0
  5  6  1  0
  6  7  1  0
  8  7  1  6
  8  9  1  0
  9 10  2  0
  9 11  1  0
 11 12  1  0
 12 13  2  0
 13 14  1  0
 14 15  2  0
 15 16  1  0
 16 17  2  0
 17 18  1  0
 18 19  2  0
 19 20  1  0
 20 21  2  0
 20 22  1  0
 19 23  1  0
 18 24  1  0
 17 25  1  0
 15 26  1  0
 13 27  1  0
 11 28  1  0
 28 29  1  0
 29 30  1  0
 30 31  1  0
 31 32  1  0
 32 33  1  0
 33 34  1  0
 33 35  1  0
 33 36  1  0
 32 37  1  0
 37 38  1  0
 37 39  1  0
 37 40  1  0
 32 41  1  0
 30 42  1  0
 30 43  1  0
 29 44  1  1
 28 45  1  0
 28 46  1  0
  8 47  1  0
 47 48  2  0
 48 49  1  0
 49 50  1  0
 49 51  2  0
 51 52  1  0
 52 53  2  0
 53 54  1  0
 54 55  2  0
 52 56  1  0
 51 57  1  0
 48 58  1  0
  7 59  1  0
  7 60  1  0
  5 61  1  0
  5 62  1  0
  2 63  1  0
  1 64  1  0
  1 65  1  0
  1 66  1  0
 54  6  1  0
 29  8  1  0
 53 47  1  0
 21 12  1  0
 21 16  1  0
M  END
>  <cnnaffinities>  (93) 
[7.02194, 7.03605, 6.63143]

>  <score>  (93) 
7.02194

>  <index>  (93) 
96

>  <Smiles>  (93) 
C(N(C(=O)C(N1C([C@@]2(C(=O)N(c3c(nc(c4c(c(c(c(c34)[H])[H])[H])[H])[H])[H])C([C@@]2(C(OC(C([H])([H])[H])(C([H])([H])[H])[H])([H])[H])[H])([H])[H])c2c(c(Cl)c(c(c2C1=O)[H])[H])[H])([H])[H])([H])[H])[H])([H])([H])[H]

>  <h>  (93) 
<NA>

>  <Training>  (93) 
True

>  <Success>  (93) 
True

>  <enamine_searched>  (93) 
False

>  <enamine_id>  (93) 
nan

$$$$

     RDKit          3D

 40 43  0  0  0  0  0  0  0  0999 V2000
  -10.3042   -3.7779  -25.0254 C   0  0  0  0  0  0  0  0  0  0  0  0
  -10.6336   -2.3251  -24.6894 C   0  0  2  0  0  0  0  0  0  0  0  0
  -10.1114   -1.3720  -25.7636 C   0  0  0  0  0  0  0  0  0  0  0  0
   -8.7052   -1.2436  -25.7114 O   0  0  0  0  0  0  0  0  0  0  0  0
   -8.3043   -0.6123  -24.5142 C   0  0  0  0  0  0  0  0  0  0  0  0
   -8.6423   -1.4611  -23.2716 C   0  0  1  0  0  0  0  0  0  0  0  0
  -10.1262   -1.8750  -23.3139 C   0  0  0  0  0  0  0  0  0  0  0  0
  -10.7220   -1.0169  -22.9911 H   0  0  0  0  0  0  0  0  0  0  0  0
  -10.2815   -2.6654  -22.5712 H   0  0  0  0  0  0  0  0  0  0  0  0
   -7.7447   -2.5910  -23.1144 N   0  0  0  0  0  0  0  0  0  0  0  0
   -6.9659   -2.5721  -21.9851 C   0  0  0  0  0  0  0  0  0  0  0  0
   -6.1117   -3.3569  -21.6461 O   0  0  0  0  0  0  0  0  0  0  0  0
   -7.3734   -1.4207  -21.2617 N   0  0  0  0  0  0  0  0  0  0  0  0
   -6.5893   -0.8397  -20.2019 C   0  0  0  0  0  0  0  0  0  0  0  0
   -6.8923   -1.0550  -18.8794 C   0  0  0  0  0  0  0  0  0  0  0  0
   -6.1967   -0.5451  -17.8221 N   0  0  0  0  0  0  0  0  0  0  0  0
   -5.1604    0.2212  -18.0687 C   0  0  0  0  0  0  0  0  0  0  0  0
   -4.7246    0.5334  -19.3890 C   0  0  0  0  0  0  0  0  0  0  0  0
   -3.5948    1.3654  -19.6281 C   0  0  0  0  0  0  0  0  0  0  0  0
   -3.2065    1.6447  -20.9125 C   0  0  0  0  0  0  0  0  0  0  0  0
   -3.9233    1.1076  -22.0029 C   0  0  0  0  0  0  0  0  0  0  0  0
   -5.0155    0.3036  -21.7937 C   0  0  0  0  0  0  0  0  0  0  0  0
   -5.4519   -0.0055  -20.4783 C   0  0  0  0  0  0  0  0  0  0  0  0
   -5.5599   -0.1064  -22.6376 H   0  0  0  0  0  0  0  0  0  0  0  0
   -3.6113    1.3314  -23.0180 H   0  0  0  0  0  0  0  0  0  0  0  0
   -2.3483    2.2815  -21.1048 H   0  0  0  0  0  0  0  0  0  0  0  0
   -3.0498    1.7788  -18.7821 H   0  0  0  0  0  0  0  0  0  0  0  0
   -4.6018    0.6280  -17.2182 H   0  0  0  0  0  0  0  0  0  0  0  0
   -7.7403   -1.6773  -18.6081 H   0  0  0  0  0  0  0  0  0  0  0  0
   -8.3264   -0.6853  -21.9934 C   0  0  0  0  0  0  0  0  0  0  0  0
   -8.7889    0.3775  -21.6650 O   0  0  0  0  0  0  0  0  0  0  0  0
   -7.5429   -3.2308  -23.8633 H   0  0  0  0  0  0  0  0  0  0  0  0
   -7.2185   -0.4608  -24.5702 H   0  0  0  0  0  0  0  0  0  0  0  0
   -8.7803    0.3762  -24.4283 H   0  0  0  0  0  0  0  0  0  0  0  0
  -10.5624   -0.3713  -25.6579 H   0  0  0  0  0  0  0  0  0  0  0  0
  -10.3530   -1.7427  -26.7650 H   0  0  0  0  0  0  0  0  0  0  0  0
  -11.7271   -2.2308  -24.6776 H   0  0  0  0  0  0  0  0  0  0  0  0
  -10.5608   -4.4414  -24.1943 H   0  0  0  0  0  0  0  0  0  0  0  0
  -10.8750   -4.1027  -25.9014 H   0  0  0  0  0  0  0  0  0  0  0  0
   -9.2450   -3.9148  -25.2571 H   0  0  0  0  0  0  0  0  0  0  0  0
  1  2  1  0
  2  3  1  0
  3  4  1  0
  4  5  1  0
  5  6  1  0
  6  7  1  0
  7  8  1  0
  7  9  1  0
  6 10  1  6
 10 11  1  0
 11 12  2  0
 11 13  1  0
 13 14  1  0
 14 15  2  0
 15 16  1  0
 16 17  2  0
 17 18  1  0
 18 19  2  0
 19 20  1  0
 20 21  2  0
 21 22  1  0
 22 23  2  0
 22 24  1  0
 21 25  1  0
 20 26  1  0
 19 27  1  0
 17 28  1  0
 15 29  1  0
 13 30  1  0
 30 31  2  0
 10 32  1  0
  5 33  1  0
  5 34  1  0
  3 35  1  0
  3 36  1  0
  2 37  1  1
  1 38  1  0
  1 39  1  0
  1 40  1  0
  7  2  1  0
 23 14  1  0
 30  6  1  0
 23 18  1  0
M  END
>  <cnnaffinities>  (94) 
[5.07504, 5.50273]

>  <score>  (94) 
5.07504

>  <index>  (94) 
97

>  <Smiles>  (94) 
C([C@@]1(C(OC([C@@]2(C1([H])[H])N(C(=O)N(c1c(nc(c3c(c(c(c(c13)[H])[H])[H])[H])[H])[H])C2=O)[H])([H])[H])([H])[H])[H])([H])([H])[H]

>  <h>  (94) 
<NA>

>  <Training>  (94) 
True

>  <Success>  (94) 
True

>  <enamine_searched>  (94) 
False

>  <enamine_id>  (94) 
nan

$$$$
