
     RDKit          3D

 66 71  0  0  0  0  0  0  0  0999 V2000
   -8.6223    2.7541  -28.4571 C   0  0  0  0  0  0  0  0  0  0  0  0
   -8.6098    2.8486  -27.0015 N   0  0  0  0  0  0  0  0  0  0  0  0
   -7.9469    1.8542  -26.3216 C   0  0  0  0  0  0  0  0  0  0  0  0
   -7.1496    1.0953  -26.8438 O   0  0  0  0  0  0  0  0  0  0  0  0
   -8.2479    1.7916  -24.8204 C   0  0  0  0  0  0  0  0  0  0  0  0
   -9.0702    0.6600  -24.4428 N   0  0  0  0  0  0  0  0  0  0  0  0
   -8.4750   -0.6553  -24.2642 C   0  0  0  0  0  0  0  0  0  0  0  0
   -8.9964   -1.3615  -22.9805 C   0  0  2  0  0  0  0  0  0  0  0  0
   -8.4622   -0.6247  -21.7270 C   0  0  0  0  0  0  0  0  0  0  0  0
   -8.8546    0.4227  -21.2640 O   0  0  0  0  0  0  0  0  0  0  0  0
   -7.4223   -1.3554  -21.1999 N   0  0  0  0  0  0  0  0  0  0  0  0
   -6.6118   -0.8018  -20.1779 C   0  0  0  0  0  0  0  0  0  0  0  0
   -6.9128   -1.0527  -18.8660 C   0  0  0  0  0  0  0  0  0  0  0  0
   -6.2079   -0.5735  -17.8110 N   0  0  0  0  0  0  0  0  0  0  0  0
   -5.1800    0.1975  -18.0725 C   0  0  0  0  0  0  0  0  0  0  0  0
   -4.7600    0.5470  -19.3886 C   0  0  0  0  0  0  0  0  0  0  0  0
   -3.6337    1.3809  -19.6199 C   0  0  0  0  0  0  0  0  0  0  0  0
   -3.2593    1.7038  -20.8953 C   0  0  0  0  0  0  0  0  0  0  0  0
   -3.9965    1.2143  -21.9957 C   0  0  0  0  0  0  0  0  0  0  0  0
   -5.0775    0.3897  -21.7993 C   0  0  0  0  0  0  0  0  0  0  0  0
   -5.4919    0.0368  -20.4839 C   0  0  0  0  0  0  0  0  0  0  0  0
   -5.5960   -0.0242  -22.6597 H   0  0  0  0  0  0  0  0  0  0  0  0
   -3.6809    1.4521  -23.0072 H   0  0  0  0  0  0  0  0  0  0  0  0
   -2.3919    2.3331  -21.0742 H   0  0  0  0  0  0  0  0  0  0  0  0
   -3.0819    1.7522  -18.7606 H   0  0  0  0  0  0  0  0  0  0  0  0
   -4.6159    0.5876  -17.2236 H   0  0  0  0  0  0  0  0  0  0  0  0
   -7.7768   -1.6679  -18.6215 H   0  0  0  0  0  0  0  0  0  0  0  0
   -7.1138   -2.5711  -21.9247 C   0  0  0  0  0  0  0  0  0  0  0  0
   -8.3869   -2.8043  -22.7657 C   0  0  2  0  0  0  0  0  0  0  0  0
   -8.1475   -3.6541  -24.0386 C   0  0  0  0  0  0  0  0  0  0  0  0
   -7.6469   -4.9798  -23.8406 N   0  0  0  0  0  0  0  0  0  0  0  0
   -8.4670   -6.0166  -23.5246 C   0  0  0  0  0  0  0  0  0  0  0  0
  -10.0149   -5.9386  -23.5431 C   0  0  0  0  0  0  0  0  0  0  0  0
   -9.8687   -5.8521  -23.7155 C   0  0  0  0  0  0  0  0  0  0  0  0
   -9.7975   -8.3116  -23.2578 N   0  0  0  0  0  0  0  0  0  0  0  0
   -8.5520   -8.2096  -23.1492 C   0  0  0  0  0  0  0  0  0  0  0  0
   -7.7436   -7.0480  -23.2019 N   0  0  0  0  0  0  0  0  0  0  0  0
   -7.9413   -9.0890  -22.9992 H   0  0  0  0  0  0  0  0  0  0  0  0
  -10.0227   -6.0313  -24.8692 H   0  0  0  0  0  0  0  0  0  0  0  0
  -10.4547   -4.8315  -23.3894 H   0  0  0  0  0  0  0  0  0  0  0  0
   -6.6479   -5.1769  -23.7346 H   0  0  0  0  0  0  0  0  0  0  0  0
   -7.4375   -3.1159  -24.6915 H   0  0  0  0  0  0  0  0  0  0  0  0
   -9.0993   -3.7486  -24.5733 H   0  0  0  0  0  0  0  0  0  0  0  0
   -9.0935   -3.3269  -22.1178 H   0  0  0  0  0  0  0  0  0  0  0  0
   -6.2430   -2.4482  -22.5853 H   0  0  0  0  0  0  0  0  0  0  0  0
   -6.8818   -3.3688  -21.2072 H   0  0  0  0  0  0  0  0  0  0  0  0
  -10.5163   -1.2812  -23.0188 C   0  0  0  0  0  0  0  0  0  0  0  0
  -11.2973   -2.1570  -22.2527 C   0  0  0  0  0  0  0  0  0  0  0  0
  -12.6767   -2.0421  -22.2678 C   0  0  0  0  0  0  0  0  0  0  0  0
  -13.6397   -3.0657  -21.2434 Cl  0  0  0  0  0  0  0  0  0  0  0  0
  -13.3306   -1.1051  -23.0647 C   0  0  0  0  0  0  0  0  0  0  0  0
  -12.5682   -0.2112  -23.7873 C   0  0  0  0  0  0  0  0  0  0  0  0
  -11.1775   -0.2721  -23.7394 C   0  0  0  0  0  0  0  0  0  0  0  0
  -10.4221    0.8276  -24.4189 C   0  0  0  0  0  0  0  0  0  0  0  0
  -10.9765    1.8218  -24.8815 O   0  0  0  0  0  0  0  0  0  0  0  0
  -13.0180    0.5746  -24.3844 H   0  0  0  0  0  0  0  0  0  0  0  0
  -14.4142   -1.0760  -23.0771 H   0  0  0  0  0  0  0  0  0  0  0  0
  -10.8470   -2.9300  -21.6366 H   0  0  0  0  0  0  0  0  0  0  0  0
   -8.7131   -1.2783  -25.1374 H   0  0  0  0  0  0  0  0  0  0  0  0
   -7.3903   -0.5179  -24.2291 H   0  0  0  0  0  0  0  0  0  0  0  0
   -8.7549    2.7011  -24.4870 H   0  0  0  0  0  0  0  0  0  0  0  0
   -7.2886    1.7013  -24.3001 H   0  0  0  0  0  0  0  0  0  0  0  0
   -9.5189    3.0371  -26.5910 H   0  0  0  0  0  0  0  0  0  0  0  0
   -7.6437    3.0067  -28.8682 H   0  0  0  0  0  0  0  0  0  0  0  0
   -9.3610    3.4529  -28.8585 H   0  0  0  0  0  0  0  0  0  0  0  0
   -8.8640    1.7360  -28.7831 H   0  0  0  0  0  0  0  0  0  0  0  0
  1  2  1  0
  2  3  1  0
  3  4  2  0
  3  5  1  0
  5  6  1  0
  6  7  1  0
  8  7  1  6
  8  9  1  0
  9 10  2  0
  9 11  1  0
 11 12  1  0
 12 13  2  0
 13 14  1  0
 14 15  2  0
 15 16  1  0
 16 17  2  0
 17 18  1  0
 18 19  2  0
 19 20  1  0
 20 21  2  0
 20 22  1  0
 19 23  1  0
 18 24  1  0
 17 25  1  0
 15 26  1  0
 13 27  1  0
 11 28  1  0
 28 29  1  0
 29 30  1  0
 30 31  1  0
 31 32  1  0
 32 33  2  0
 33 34  1  0
 34 35  2  0
 35 36  1  0
 36 37  2  0
 36 38  1  0
 34 39  1  0
 33 40  1  0
 31 41  1  0
 30 42  1  0
 30 43  1  0
 29 44  1  1
 28 45  1  0
 28 46  1  0
  8 47  1  0
 47 48  2  0
 48 49  1  0
 49 50  1  0
 49 51  2  0
 51 52  1  0
 52 53  2  0
 53 54  1  0
 54 55  2  0
 52 56  1  0
 51 57  1  0
 48 58  1  0
  7 59  1  0
  7 60  1  0
  5 61  1  0
  5 62  1  0
  2 63  1  0
  1 64  1  0
  1 65  1  0
  1 66  1  0
 54  6  1  0
 29  8  1  0
 37 32  1  0
 53 47  1  0
 21 12  1  0
 21 16  1  0
M  END
>  <cnnaffinities>  (1) 
[6.70934]

>  <score>  (1) 
6.70934

>  <index>  (1) 
0

>  <Smiles>  (1) 
C(N(C(=O)C(N1C([C@@]2(C(=O)N(c3c(nc(c4c(c(c(c(c34)[H])[H])[H])[H])[H])[H])C([C@@]2(C(N(c2c(c(nc(n2)[H])[H])[H])[H])([H])[H])[H])([H])[H])c2c(c(Cl)c(c(c2C1=O)[H])[H])[H])([H])[H])([H])[H])[H])([H])([H])[H]

>  <h>  (1) 
<NA>

>  <Training>  (1) 
True

>  <Success>  (1) 
True

>  <enamine_searched>  (1) 
False

>  <enamine_id>  (1) 
nan

$$$$

     RDKit          3D

 68 73  0  0  0  0  0  0  0  0999 V2000
   -7.2918    3.4957  -21.9928 C   0  0  0  0  0  0  0  0  0  0  0  0
   -8.2611    2.9190  -22.9046 N   0  0  0  0  0  0  0  0  0  0  0  0
   -7.8349    2.2504  -24.0046 C   0  0  0  0  0  0  0  0  0  0  0  0
   -6.6480    2.1124  -24.2726 O   0  0  0  0  0  0  0  0  0  0  0  0
   -8.9367    1.6885  -24.8969 C   0  0  0  0  0  0  0  0  0  0  0  0
   -9.5525    0.5158  -24.3043 N   0  0  0  0  0  0  0  0  0  0  0  0
   -8.7123   -0.6516  -24.0795 C   0  0  0  0  0  0  0  0  0  0  0  0
   -9.1061   -1.4298  -22.7961 C   0  0  2  0  0  0  0  0  0  0  0  0
   -8.6629   -0.6222  -21.5455 C   0  0  0  0  0  0  0  0  0  0  0  0
   -9.2174    0.3516  -21.0801 O   0  0  0  0  0  0  0  0  0  0  0  0
   -7.5100   -1.1852  -21.0509 N   0  0  0  0  0  0  0  0  0  0  0  0
   -6.7070   -0.6175  -20.0362 C   0  0  0  0  0  0  0  0  0  0  0  0
   -6.9405   -0.9422  -18.7276 C   0  0  0  0  0  0  0  0  0  0  0  0
   -6.1772   -0.5233  -17.6906 N   0  0  0  0  0  0  0  0  0  0  0  0
   -5.1425    0.2345  -17.9702 C   0  0  0  0  0  0  0  0  0  0  0  0
   -4.7636    0.6174  -19.2908 C   0  0  0  0  0  0  0  0  0  0  0  0
   -3.6268    1.4300  -19.5577 C   0  0  0  0  0  0  0  0  0  0  0  0
   -3.3017    1.7752  -20.8428 C   0  0  0  0  0  0  0  0  0  0  0  0
   -4.0963    1.3303  -21.9239 C   0  0  0  0  0  0  0  0  0  0  0  0
   -5.1951    0.5368  -21.6926 C   0  0  0  0  0  0  0  0  0  0  0  0
   -5.5631    0.1696  -20.3674 C   0  0  0  0  0  0  0  0  0  0  0  0
   -5.8087    0.2218  -22.5315 H   0  0  0  0  0  0  0  0  0  0  0  0
   -3.8555    1.6199  -22.9431 H   0  0  0  0  0  0  0  0  0  0  0  0
   -2.4375    2.4032  -21.0409 H   0  0  0  0  0  0  0  0  0  0  0  0
   -3.0289    1.7710  -18.7165 H   0  0  0  0  0  0  0  0  0  0  0  0
   -4.5374    0.5795  -17.1309 H   0  0  0  0  0  0  0  0  0  0  0  0
   -7.7873   -1.5812  -18.4838 H   0  0  0  0  0  0  0  0  0  0  0  0
   -7.0404   -2.3357  -21.7780 C   0  0  0  0  0  0  0  0  0  0  0  0
   -8.2569   -2.7358  -22.6227 C   0  0  2  0  0  0  0  0  0  0  0  0
   -7.8069   -3.4815  -23.8763 C   0  0  0  0  0  0  0  0  0  0  0  0
   -8.9313   -4.1180  -24.5197 N   0  0  0  0  0  0  0  0  0  0  0  0
   -8.7852   -4.6353  -25.8084 C   0  0  0  0  0  0  0  0  0  0  0  0
   -7.6361   -4.6546  -26.6449 C   0  0  0  0  0  0  0  0  0  0  0  0
   -7.8899   -5.2525  -27.8030 N   0  0  0  0  0  0  0  0  0  0  0  0
   -9.1651   -5.6322  -27.7264 N   0  0  0  0  0  0  0  0  0  0  0  0
   -9.8650   -6.0898  -28.8941 C   0  0  0  0  0  0  0  0  0  0  0  0
  -10.5827   -5.3234  -29.1923 H   0  0  0  0  0  0  0  0  0  0  0  0
  -10.3773   -7.0318  -28.6886 H   0  0  0  0  0  0  0  0  0  0  0  0
   -9.1422   -6.2216  -29.6962 H   0  0  0  0  0  0  0  0  0  0  0  0
   -9.7456   -5.2977  -26.5444 C   0  0  0  0  0  0  0  0  0  0  0  0
  -10.7688   -5.5761  -26.3163 H   0  0  0  0  0  0  0  0  0  0  0  0
   -6.6511   -4.2237  -26.4902 H   0  0  0  0  0  0  0  0  0  0  0  0
   -9.8280   -3.6811  -24.3321 H   0  0  0  0  0  0  0  0  0  0  0  0
   -7.2697   -2.7930  -24.5552 H   0  0  0  0  0  0  0  0  0  0  0  0
   -7.0641   -4.2382  -23.5921 H   0  0  0  0  0  0  0  0  0  0  0  0
   -8.8539   -3.4308  -22.0231 H   0  0  0  0  0  0  0  0  0  0  0  0
   -6.1610   -2.0927  -22.3979 H   0  0  0  0  0  0  0  0  0  0  0  0
   -6.7241   -3.1198  -21.0791 H   0  0  0  0  0  0  0  0  0  0  0  0
  -10.6234   -1.5871  -22.7771 C   0  0  0  0  0  0  0  0  0  0  0  0
  -11.2323   -2.4375  -21.8426 C   0  0  0  0  0  0  0  0  0  0  0  0
  -12.6100   -2.4112  -21.6746 C   0  0  0  0  0  0  0  0  0  0  0  0
  -13.3728   -3.2532  -20.3598 Cl  0  0  0  0  0  0  0  0  0  0  0  0
  -13.4423   -1.6364  -22.4813 C   0  0  0  0  0  0  0  0  0  0  0  0
  -12.8532   -0.7870  -23.3911 C   0  0  0  0  0  0  0  0  0  0  0  0
  -11.4629   -0.7235  -23.5018 C   0  0  0  0  0  0  0  0  0  0  0  0
  -10.9165    0.4363  -24.2719 C   0  0  0  0  0  0  0  0  0  0  0  0
  -11.6547    1.2767  -24.7706 O   0  0  0  0  0  0  0  0  0  0  0  0
  -13.4453   -0.0995  -23.9857 H   0  0  0  0  0  0  0  0  0  0  0  0
  -14.5207   -1.6933  -22.3593 H   0  0  0  0  0  0  0  0  0  0  0  0
  -10.6378   -3.1097  -21.2349 H   0  0  0  0  0  0  0  0  0  0  0  0
   -7.6834   -0.2914  -23.9918 H   0  0  0  0  0  0  0  0  0  0  0  0
   -8.7691   -1.3203  -24.9525 H   0  0  0  0  0  0  0  0  0  0  0  0
   -9.7352    2.4240  -25.0272 H   0  0  0  0  0  0  0  0  0  0  0  0
   -8.4907    1.4688  -25.8745 H   0  0  0  0  0  0  0  0  0  0  0  0
   -9.1932    2.7373  -22.5632 H   0  0  0  0  0  0  0  0  0  0  0  0
   -6.5746    4.0828  -22.5739 H   0  0  0  0  0  0  0  0  0  0  0  0
   -7.8058    4.1505  -21.2827 H   0  0  0  0  0  0  0  0  0  0  0  0
   -6.7446    2.7118  -21.4498 H   0  0  0  0  0  0  0  0  0  0  0  0
  1  2  1  0
  2  3  1  0
  3  4  2  0
  3  5  1  0
  5  6  1  0
  6  7  1  0
  8  7  1  6
  8  9  1  0
  9 10  2  0
  9 11  1  0
 11 12  1  0
 12 13  2  0
 13 14  1  0
 14 15  2  0
 15 16  1  0
 16 17  2  0
 17 18  1  0
 18 19  2  0
 19 20  1  0
 20 21  2  0
 20 22  1  0
 19 23  1  0
 18 24  1  0
 17 25  1  0
 15 26  1  0
 13 27  1  0
 11 28  1  0
 28 29  1  0
 29 30  1  0
 30 31  1  0
 31 32  1  0
 32 33  1  0
 33 34  2  0
 34 35  1  0
 35 36  1  0
 36 37  1  0
 36 38  1  0
 36 39  1  0
 35 40  1  0
 40 41  1  0
 33 42  1  0
 31 43  1  0
 30 44  1  0
 30 45  1  0
 29 46  1  1
 28 47  1  0
 28 48  1  0
  8 49  1  0
 49 50  2  0
 50 51  1  0
 51 52  1  0
 51 53  2  0
 53 54  1  0
 54 55  2  0
 55 56  1  0
 56 57  2  0
 54 58  1  0
 53 59  1  0
 50 60  1  0
  7 61  1  0
  7 62  1  0
  5 63  1  0
  5 64  1  0
  2 65  1  0
  1 66  1  0
  1 67  1  0
  1 68  1  0
 56  6  1  0
 29  8  1  0
 40 32  2  0
 55 49  1  0
 21 12  1  0
 21 16  1  0
M  END
>  <cnnaffinities>  (2) 
[6.53382]

>  <score>  (2) 
6.53382

>  <index>  (2) 
1

>  <Smiles>  (2) 
C(N(C(=O)C(N1C([C@@]2(C(=O)N(c3c(nc(c4c(c(c(c(c34)[H])[H])[H])[H])[H])[H])C([C@@]2(C(N(c2c(nn(C([H])([H])[H])c2[H])[H])[H])([H])[H])[H])([H])[H])c2c(c(Cl)c(c(c2C1=O)[H])[H])[H])([H])[H])([H])[H])[H])([H])([H])[H]

>  <h>  (2) 
<NA>

>  <Training>  (2) 
True

>  <Success>  (2) 
True

>  <enamine_searched>  (2) 
False

>  <enamine_id>  (2) 
nan

$$$$

     RDKit          3D

 60 65  0  0  0  0  0  0  0  0999 V2000
   -6.3287    1.0721  -30.6307 C   0  0  0  0  0  0  0  0  0  0  0  0
   -6.6947    1.2287  -29.1767 C   0  0  0  0  0  0  0  0  0  0  0  0
   -6.0586    0.4826  -28.1819 C   0  0  0  0  0  0  0  0  0  0  0  0
   -6.3761    0.5799  -26.8949 N   0  0  0  0  0  0  0  0  0  0  0  0
   -7.3668    1.4238  -26.5766 C   0  0  0  0  0  0  0  0  0  0  0  0
   -7.7736    1.5341  -25.1271 C   0  0  0  0  0  0  0  0  0  0  0  0
   -8.7365    0.5371  -24.6976 N   0  0  0  0  0  0  0  0  0  0  0  0
   -8.2695   -0.8075  -24.4173 C   0  0  0  0  0  0  0  0  0  0  0  0
   -8.8750   -1.3531  -23.0979 C   0  0  2  0  0  0  0  0  0  0  0  0
   -8.2974   -0.5462  -21.9046 C   0  0  0  0  0  0  0  0  0  0  0  0
   -8.5301    0.6121  -21.6211 O   0  0  0  0  0  0  0  0  0  0  0  0
   -7.4397   -1.3503  -21.1920 N   0  0  0  0  0  0  0  0  0  0  0  0
   -6.6162   -0.7971  -20.1721 C   0  0  0  0  0  0  0  0  0  0  0  0
   -6.8998   -1.0546  -18.8590 C   0  0  0  0  0  0  0  0  0  0  0  0
   -6.1921   -0.5673  -17.8076 N   0  0  0  0  0  0  0  0  0  0  0  0
   -5.1660    0.2027  -18.0752 C   0  0  0  0  0  0  0  0  0  0  0  0
   -4.7430    0.5424  -19.3913 C   0  0  0  0  0  0  0  0  0  0  0  0
   -3.6100    1.3709  -19.6279 C   0  0  0  0  0  0  0  0  0  0  0  0
   -3.2257    1.6742  -20.9031 C   0  0  0  0  0  0  0  0  0  0  0  0
   -3.9612    1.1697  -21.9984 C   0  0  0  0  0  0  0  0  0  0  0  0
   -5.0512    0.3590  -21.7973 C   0  0  0  0  0  0  0  0  0  0  0  0
   -5.4864    0.0325  -20.4811 C   0  0  0  0  0  0  0  0  0  0  0  0
   -5.5600   -0.0830  -22.6507 H   0  0  0  0  0  0  0  0  0  0  0  0
   -3.6263    1.3751  -23.0104 H   0  0  0  0  0  0  0  0  0  0  0  0
   -2.3521    2.2945  -21.0879 H   0  0  0  0  0  0  0  0  0  0  0  0
   -3.0667    1.7577  -18.7685 H   0  0  0  0  0  0  0  0  0  0  0  0
   -4.6173    0.6087  -17.2236 H   0  0  0  0  0  0  0  0  0  0  0  0
   -7.7517   -1.6795  -18.5965 H   0  0  0  0  0  0  0  0  0  0  0  0
   -7.2285   -2.6550  -21.7895 C   0  0  0  0  0  0  0  0  0  0  0  0
   -8.4015   -2.8071  -22.7818 C   0  0  2  0  0  0  0  0  0  0  0  0
   -8.0439   -3.6958  -23.9790 C   0  0  0  0  0  0  0  0  0  0  0  0
   -7.1713   -3.3037  -24.5145 H   0  0  0  0  0  0  0  0  0  0  0  0
   -8.8673   -3.7732  -24.6972 H   0  0  0  0  0  0  0  0  0  0  0  0
   -7.7943   -4.7095  -23.6485 H   0  0  0  0  0  0  0  0  0  0  0  0
   -9.2303   -3.2751  -22.2470 H   0  0  0  0  0  0  0  0  0  0  0  0
   -6.2636   -2.7070  -22.3180 H   0  0  0  0  0  0  0  0  0  0  0  0
   -7.2208   -3.4323  -21.0183 H   0  0  0  0  0  0  0  0  0  0  0  0
  -10.3828   -1.1481  -23.1611 C   0  0  0  0  0  0  0  0  0  0  0  0
  -11.2370   -1.8269  -22.2812 C   0  0  0  0  0  0  0  0  0  0  0  0
  -12.5958   -1.5968  -22.3489 C   0  0  0  0  0  0  0  0  0  0  0  0
  -13.4101   -2.2589  -21.5098 F   0  0  0  0  0  0  0  0  0  0  0  0
  -13.1642   -0.7040  -23.2528 C   0  0  0  0  0  0  0  0  0  0  0  0
  -12.3173    0.0268  -24.0607 C   0  0  0  0  0  0  0  0  0  0  0  0
  -10.9364   -0.1437  -23.9712 C   0  0  0  0  0  0  0  0  0  0  0  0
  -10.0561    0.8724  -24.6331 C   0  0  0  0  0  0  0  0  0  0  0  0
  -10.4906    1.9541  -25.0263 O   0  0  0  0  0  0  0  0  0  0  0  0
  -12.6830    0.7893  -24.7415 H   0  0  0  0  0  0  0  0  0  0  0  0
  -14.2366   -0.5524  -23.2543 H   0  0  0  0  0  0  0  0  0  0  0  0
  -10.8681   -2.4892  -21.5047 H   0  0  0  0  0  0  0  0  0  0  0  0
   -7.1774   -0.7666  -24.3327 H   0  0  0  0  0  0  0  0  0  0  0  0
   -8.5267   -1.4779  -25.2494 H   0  0  0  0  0  0  0  0  0  0  0  0
   -6.8763    1.4156  -24.5080 H   0  0  0  0  0  0  0  0  0  0  0  0
   -8.2305    2.5097  -24.9387 H   0  0  0  0  0  0  0  0  0  0  0  0
   -7.9755    2.1911  -27.5586 C   0  0  0  0  0  0  0  0  0  0  0  0
   -7.6449    2.1034  -28.8497 N   0  0  0  0  0  0  0  0  0  0  0  0
   -8.7589    2.9030  -27.2932 H   0  0  0  0  0  0  0  0  0  0  0  0
   -5.2755   -0.2277  -28.4448 H   0  0  0  0  0  0  0  0  0  0  0  0
   -6.5034    0.0405  -30.9664 H   0  0  0  0  0  0  0  0  0  0  0  0
   -6.9298    1.7544  -31.2370 H   0  0  0  0  0  0  0  0  0  0  0  0
   -5.2639    1.2919  -30.7834 H   0  0  0  0  0  0  0  0  0  0  0  0
  1  2  1  0
  2  3  2  0
  3  4  1  0
  4  5  2  0
  5  6  1  0
  6  7  1  0
  7  8  1  0
  9  8  1  6
  9 10  1  0
 10 11  2  0
 10 12  1  0
 12 13  1  0
 13 14  2  0
 14 15  1  0
 15 16  2  0
 16 17  1  0
 17 18  2  0
 18 19  1  0
 19 20  2  0
 20 21  1  0
 21 22  2  0
 21 23  1  0
 20 24  1  0
 19 25  1  0
 18 26  1  0
 16 27  1  0
 14 28  1  0
 12 29  1  0
 29 30  1  0
 30 31  1  0
 31 32  1  0
 31 33  1  0
 31 34  1  0
 30 35  1  1
 29 36  1  0
 29 37  1  0
  9 38  1  0
 38 39  2  0
 39 40  1  0
 40 41  1  0
 40 42  2  0
 42 43  1  0
 43 44  2  0
 44 45  1  0
 45 46  2  0
 43 47  1  0
 42 48  1  0
 39 49  1  0
  8 50  1  0
  8 51  1  0
  6 52  1  0
  6 53  1  0
  5 54  1  0
 54 55  2  0
 54 56  1  0
  3 57  1  0
  1 58  1  0
  1 59  1  0
  1 60  1  0
 55  2  1  0
 45  7  1  0
 30  9  1  0
 44 38  1  0
 22 13  1  0
 22 17  1  0
M  END
>  <cnnaffinities>  (3) 
[6.09873]

>  <score>  (3) 
6.09873

>  <index>  (3) 
2

>  <Smiles>  (3) 
C(c1c(nc(C(N2C([C@@]3(C(=O)N(c4c(nc(c5c(c(c(c(c45)[H])[H])[H])[H])[H])[H])C([C@@]3(C([H])([H])[H])[H])([H])[H])c3c(c(F)c(c(c3C2=O)[H])[H])[H])([H])[H])([H])[H])c(n1)[H])[H])([H])([H])[H]

>  <h>  (3) 
<NA>

>  <Training>  (3) 
True

>  <Success>  (3) 
True

>  <enamine_searched>  (3) 
False

>  <enamine_id>  (3) 
nan

$$$$

     RDKit          3D

 66 70  0  0  0  0  0  0  0  0999 V2000
   -7.3536    3.4227  -21.9018 C   0  0  0  0  0  0  0  0  0  0  0  0
   -8.3091    2.9296  -22.8821 N   0  0  0  0  0  0  0  0  0  0  0  0
   -7.8011    2.2313  -23.9382 C   0  0  0  0  0  0  0  0  0  0  0  0
   -6.6012    2.0615  -24.0770 O   0  0  0  0  0  0  0  0  0  0  0  0
   -8.8137    1.6475  -24.9258 C   0  0  0  0  0  0  0  0  0  0  0  0
   -9.4629    0.4863  -24.3432 N   0  0  0  0  0  0  0  0  0  0  0  0
   -8.6979   -0.7414  -24.1626 C   0  0  0  0  0  0  0  0  0  0  0  0
   -9.0957   -1.4986  -22.8678 C   0  0  2  0  0  0  0  0  0  0  0  0
   -8.5729   -0.7453  -21.6216 C   0  0  0  0  0  0  0  0  0  0  0  0
   -9.0521    0.2360  -21.0893 O   0  0  0  0  0  0  0  0  0  0  0  0
   -7.4199   -1.3624  -21.1948 N   0  0  0  0  0  0  0  0  0  0  0  0
   -6.6309   -0.7881  -20.1675 C   0  0  0  0  0  0  0  0  0  0  0  0
   -6.9368   -1.0409  -18.8553 C   0  0  0  0  0  0  0  0  0  0  0  0
   -6.2321   -0.5705  -17.7989 N   0  0  0  0  0  0  0  0  0  0  0  0
   -5.1949    0.1895  -18.0590 C   0  0  0  0  0  0  0  0  0  0  0  0
   -4.7718    0.5420  -19.3732 C   0  0  0  0  0  0  0  0  0  0  0  0
   -3.6445    1.3746  -19.6061 C   0  0  0  0  0  0  0  0  0  0  0  0
   -3.2838    1.7176  -20.8811 C   0  0  0  0  0  0  0  0  0  0  0  0
   -4.0393    1.2577  -21.9825 C   0  0  0  0  0  0  0  0  0  0  0  0
   -5.1253    0.4359  -21.7856 C   0  0  0  0  0  0  0  0  0  0  0  0
   -5.5157    0.0506  -20.4730 C   0  0  0  0  0  0  0  0  0  0  0  0
   -5.6919    0.0894  -22.6445 H   0  0  0  0  0  0  0  0  0  0  0  0
   -3.7574    1.5392  -22.9926 H   0  0  0  0  0  0  0  0  0  0  0  0
   -2.4145    2.3453  -21.0547 H   0  0  0  0  0  0  0  0  0  0  0  0
   -3.0881    1.7367  -18.7460 H   0  0  0  0  0  0  0  0  0  0  0  0
   -4.6303    0.5723  -17.2080 H   0  0  0  0  0  0  0  0  0  0  0  0
   -7.7958   -1.6646  -18.6219 H   0  0  0  0  0  0  0  0  0  0  0  0
   -7.0470   -2.5357  -21.9588 C   0  0  0  0  0  0  0  0  0  0  0  0
   -8.3316   -2.8581  -22.7379 C   0  0  2  0  0  0  0  0  0  0  0  0
   -8.0644   -3.6442  -24.0215 C   0  0  0  0  0  0  0  0  0  0  0  0
   -9.2726   -4.1191  -24.5819 O   0  0  0  0  0  0  0  0  0  0  0  0
   -9.5478   -5.5034  -24.3596 C   0  0  0  0  0  0  0  0  0  0  0  0
  -11.0541   -5.6994  -24.3428 C   0  0  0  0  0  0  0  0  0  0  0  0
  -11.2995   -6.7089  -23.9882 H   0  0  0  0  0  0  0  0  0  0  0  0
  -11.5454   -4.9782  -23.6816 H   0  0  0  0  0  0  0  0  0  0  0  0
  -11.4527   -5.5922  -25.3558 H   0  0  0  0  0  0  0  0  0  0  0  0
   -8.9114   -6.3649  -25.4485 C   0  0  0  0  0  0  0  0  0  0  0  0
   -9.2964   -7.3890  -25.3765 H   0  0  0  0  0  0  0  0  0  0  0  0
   -7.8184   -6.3995  -25.3777 H   0  0  0  0  0  0  0  0  0  0  0  0
   -9.1873   -5.9644  -26.4301 H   0  0  0  0  0  0  0  0  0  0  0  0
   -9.1615   -5.7937  -23.3697 H   0  0  0  0  0  0  0  0  0  0  0  0
   -7.3561   -4.4673  -23.8200 H   0  0  0  0  0  0  0  0  0  0  0  0
   -7.5823   -2.9972  -24.7652 H   0  0  0  0  0  0  0  0  0  0  0  0
   -8.9427   -3.4998  -22.0991 H   0  0  0  0  0  0  0  0  0  0  0  0
   -6.1970   -2.3315  -22.6308 H   0  0  0  0  0  0  0  0  0  0  0  0
   -6.7468   -3.3525  -21.2906 H   0  0  0  0  0  0  0  0  0  0  0  0
  -10.6089   -1.5805  -22.8231 C   0  0  0  0  0  0  0  0  0  0  0  0
  -11.2352   -2.4372  -21.9062 C   0  0  0  0  0  0  0  0  0  0  0  0
  -12.6127   -2.4077  -21.7622 C   0  0  0  0  0  0  0  0  0  0  0  0
  -13.3834   -3.2464  -20.4464 Cl  0  0  0  0  0  0  0  0  0  0  0  0
  -13.4100   -1.6242  -22.5962 C   0  0  0  0  0  0  0  0  0  0  0  0
  -12.7986   -0.7736  -23.4930 C   0  0  0  0  0  0  0  0  0  0  0  0
  -11.4111   -0.6910  -23.5524 C   0  0  0  0  0  0  0  0  0  0  0  0
  -10.8276    0.4795  -24.2818 C   0  0  0  0  0  0  0  0  0  0  0  0
  -11.5191    1.3799  -24.7436 O   0  0  0  0  0  0  0  0  0  0  0  0
  -13.3645   -0.0932  -24.1162 H   0  0  0  0  0  0  0  0  0  0  0  0
  -14.4863   -1.6299  -22.4776 H   0  0  0  0  0  0  0  0  0  0  0  0
  -10.6492   -3.0967  -21.2766 H   0  0  0  0  0  0  0  0  0  0  0  0
   -8.8687   -1.4226  -25.0078 H   0  0  0  0  0  0  0  0  0  0  0  0
   -7.6333   -0.4886  -24.1499 H   0  0  0  0  0  0  0  0  0  0  0  0
   -9.6098    2.3541  -25.1851 H   0  0  0  0  0  0  0  0  0  0  0  0
   -8.2800    1.3833  -25.8464 H   0  0  0  0  0  0  0  0  0  0  0  0
   -9.2454    2.7264  -22.5583 H   0  0  0  0  0  0  0  0  0  0  0  0
   -6.7865    2.5807  -21.4791 H   0  0  0  0  0  0  0  0  0  0  0  0
   -6.6550    4.1182  -22.3752 H   0  0  0  0  0  0  0  0  0  0  0  0
   -7.8792    3.9807  -21.1255 H   0  0  0  0  0  0  0  0  0  0  0  0
  1  2  1  0
  2  3  1  0
  3  4  2  0
  3  5  1  0
  5  6  1  0
  6  7  1  0
  8  7  1  6
  8  9  1  0
  9 10  2  0
  9 11  1  0
 11 12  1  0
 12 13  2  0
 13 14  1  0
 14 15  2  0
 15 16  1  0
 16 17  2  0
 17 18  1  0
 18 19  2  0
 19 20  1  0
 20 21  2  0
 20 22  1  0
 19 23  1  0
 18 24  1  0
 17 25  1  0
 15 26  1  0
 13 27  1  0
 11 28  1  0
 28 29  1  0
 29 30  1  0
 30 31  1  0
 31 32  1  0
 32 33  1  0
 33 34  1  0
 33 35  1  0
 33 36  1  0
 32 37  1  0
 37 38  1  0
 37 39  1  0
 37 40  1  0
 32 41  1  0
 30 42  1  0
 30 43  1  0
 29 44  1  1
 28 45  1  0
 28 46  1  0
  8 47  1  0
 47 48  2  0
 48 49  1  0
 49 50  1  0
 49 51  2  0
 51 52  1  0
 52 53  2  0
 53 54  1  0
 54 55  2  0
 52 56  1  0
 51 57  1  0
 48 58  1  0
  7 59  1  0
  7 60  1  0
  5 61  1  0
  5 62  1  0
  2 63  1  0
  1 64  1  0
  1 65  1  0
  1 66  1  0
 54  6  1  0
 29  8  1  0
 53 47  1  0
 21 12  1  0
 21 16  1  0
M  END
>  <cnnaffinities>  (4) 
[6.45617, 6.15138]

>  <score>  (4) 
6.45617

>  <index>  (4) 
3

>  <Smiles>  (4) 
C(N(C(=O)C(N1C([C@@]2(C(=O)N(c3c(nc(c4c(c(c(c(c34)[H])[H])[H])[H])[H])[H])C([C@@]2(C(OC(C([H])([H])[H])(C([H])([H])[H])[H])([H])[H])[H])([H])[H])c2c(c(Cl)c(c(c2C1=O)[H])[H])[H])([H])[H])([H])[H])[H])([H])([H])[H]

>  <h>  (4) 
<NA>

>  <Training>  (4) 
True

>  <Success>  (4) 
True

>  <enamine_searched>  (4) 
False

>  <enamine_id>  (4) 
nan

$$$$

     RDKit          3D

 59 64  0  0  0  0  0  0  0  0999 V2000
  -10.2811   -2.4643  -22.2592 C   0  0  0  0  0  0  0  0  0  0  0  0
   -9.0536   -1.7178  -22.8003 C   0  0  1  0  0  0  0  0  0  0  0  0
   -8.5251   -0.7147  -21.7559 C   0  0  0  0  0  0  0  0  0  0  0  0
   -7.4164   -1.4123  -21.1508 N   0  0  0  0  0  0  0  0  0  0  0  0
   -6.6212   -0.8324  -20.1368 C   0  0  0  0  0  0  0  0  0  0  0  0
   -6.9298   -1.0788  -18.8270 C   0  0  0  0  0  0  0  0  0  0  0  0
   -6.2486   -0.5716  -17.7722 N   0  0  0  0  0  0  0  0  0  0  0  0
   -5.2248    0.2043  -18.0331 C   0  0  0  0  0  0  0  0  0  0  0  0
   -4.8070    0.5525  -19.3516 C   0  0  0  0  0  0  0  0  0  0  0  0
   -3.6886    1.3965  -19.5749 C   0  0  0  0  0  0  0  0  0  0  0  0
   -3.3558    1.7764  -20.8456 C   0  0  0  0  0  0  0  0  0  0  0  0
   -4.1156    1.3177  -21.9489 C   0  0  0  0  0  0  0  0  0  0  0  0
   -5.1712    0.4572  -21.7667 C   0  0  0  0  0  0  0  0  0  0  0  0
   -5.5363    0.0471  -20.4479 C   0  0  0  0  0  0  0  0  0  0  0  0
   -5.7120    0.0708  -22.6311 H   0  0  0  0  0  0  0  0  0  0  0  0
   -3.8429    1.6311  -22.9531 H   0  0  0  0  0  0  0  0  0  0  0  0
   -2.5101    2.4363  -21.0183 H   0  0  0  0  0  0  0  0  0  0  0  0
   -3.1224    1.7379  -18.7119 H   0  0  0  0  0  0  0  0  0  0  0  0
   -4.6672    0.6112  -17.1878 H   0  0  0  0  0  0  0  0  0  0  0  0
   -7.7610   -1.7396  -18.5886 H   0  0  0  0  0  0  0  0  0  0  0  0
   -6.9828   -2.5113  -21.8509 C   0  0  0  0  0  0  0  0  0  0  0  0
   -6.1195   -3.2667  -21.4615 O   0  0  0  0  0  0  0  0  0  0  0  0
   -7.8285   -2.6320  -23.1371 C   0  0  1  0  0  0  0  0  0  0  0  0
   -8.2011   -4.1238  -23.2956 C   0  0  0  0  0  0  0  0  0  0  0  0
   -7.0487   -4.9118  -23.7004 N   0  0  0  0  0  0  0  0  0  0  0  0
   -6.8540   -6.2054  -23.0717 C   0  0  0  0  0  0  0  0  0  0  0  0
   -7.9858   -7.1385  -23.3815 C   0  0  0  0  0  0  0  0  0  0  0  0
   -8.7312   -7.6692  -22.4445 N   0  0  0  0  0  0  0  0  0  0  0  0
   -9.6355   -8.4570  -23.1082 C   0  0  0  0  0  0  0  0  0  0  0  0
   -9.4322   -8.3925  -24.4524 C   0  0  0  0  0  0  0  0  0  0  0  0
   -8.3724   -7.5291  -24.6399 N   0  0  0  0  0  0  0  0  0  0  0  0
   -7.8419   -7.1751  -25.9588 C   0  0  0  0  0  0  0  0  0  0  0  0
   -8.2623   -7.8816  -26.6816 H   0  0  0  0  0  0  0  0  0  0  0  0
   -8.1199   -6.1610  -26.2764 H   0  0  0  0  0  0  0  0  0  0  0  0
   -6.7534   -7.2504  -25.9849 H   0  0  0  0  0  0  0  0  0  0  0  0
   -9.9518   -8.8672  -25.2681 H   0  0  0  0  0  0  0  0  0  0  0  0
  -10.3376   -9.0703  -22.5670 H   0  0  0  0  0  0  0  0  0  0  0  0
   -5.8949   -6.6025  -23.4317 H   0  0  0  0  0  0  0  0  0  0  0  0
   -6.8011   -6.0806  -21.9776 H   0  0  0  0  0  0  0  0  0  0  0  0
   -6.2282   -4.5419  -24.7190 C   0  0  0  0  0  0  0  0  0  0  0  0
   -5.4265   -5.3149  -25.2331 O   0  0  0  0  0  0  0  0  0  0  0  0
   -6.3486   -3.1208  -25.1636 C   0  0  0  0  0  0  0  0  0  0  0  0
   -5.7103   -2.7694  -26.3525 C   0  0  0  0  0  0  0  0  0  0  0  0
   -5.7257   -1.4671  -26.7983 C   0  0  0  0  0  0  0  0  0  0  0  0
   -6.3878   -0.5333  -26.0143 C   0  0  0  0  0  0  0  0  0  0  0  0
   -6.4040    0.7453  -26.4287 F   0  0  0  0  0  0  0  0  0  0  0  0
   -7.0470   -0.8595  -24.8415 C   0  0  0  0  0  0  0  0  0  0  0  0
   -7.0689   -2.1907  -24.3998 C   0  0  0  0  0  0  0  0  0  0  0  0
   -7.5525   -0.0571  -24.3143 H   0  0  0  0  0  0  0  0  0  0  0  0
   -5.2383   -1.1716  -27.7195 H   0  0  0  0  0  0  0  0  0  0  0  0
   -5.2066   -3.5402  -26.9254 H   0  0  0  0  0  0  0  0  0  0  0  0
   -8.5507   -4.5277  -22.3440 H   0  0  0  0  0  0  0  0  0  0  0  0
   -9.0164   -4.2342  -24.0241 H   0  0  0  0  0  0  0  0  0  0  0  0
   -9.2690   -0.4614  -20.9948 H   0  0  0  0  0  0  0  0  0  0  0  0
   -8.1986    0.2325  -22.2072 H   0  0  0  0  0  0  0  0  0  0  0  0
   -9.3757   -1.1952  -23.7036 H   0  0  0  0  0  0  0  0  0  0  0  0
  -11.0909   -1.7674  -22.0227 H   0  0  0  0  0  0  0  0  0  0  0  0
  -10.0539   -3.0237  -21.3472 H   0  0  0  0  0  0  0  0  0  0  0  0
  -10.6705   -3.1737  -22.9927 H   0  0  0  0  0  0  0  0  0  0  0  0
  1  2  1  0
  2  3  1  0
  3  4  1  0
  4  5  1  0
  5  6  2  0
  6  7  1  0
  7  8  2  0
  8  9  1  0
  9 10  2  0
 10 11  1  0
 11 12  2  0
 12 13  1  0
 13 14  2  0
 13 15  1  0
 12 16  1  0
 11 17  1  0
 10 18  1  0
  8 19  1  0
  6 20  1  0
  4 21  1  0
 21 22  2  0
 21 23  1  0
 23 24  1  6
 24 25  1  0
 25 26  1  0
 26 27  1  0
 27 28  2  0
 28 29  1  0
 29 30  2  0
 30 31  1  0
 31 32  1  0
 32 33  1  0
 32 34  1  0
 32 35  1  0
 30 36  1  0
 29 37  1  0
 26 38  1  0
 26 39  1  0
 25 40  1  0
 40 41  2  0
 40 42  1  0
 42 43  2  0
 43 44  1  0
 44 45  2  0
 45 46  1  0
 45 47  1  0
 47 48  2  0
 47 49  1  0
 44 50  1  0
 43 51  1  0
 24 52  1  0
 24 53  1  0
  3 54  1  0
  3 55  1  0
  2 56  1  6
  1 57  1  0
  1 58  1  0
  1 59  1  0
 23  2  1  0
 31 27  1  0
 48 42  1  0
 14  5  1  0
 48 23  1  0
 14  9  1  0
M  END
>  <cnnaffinities>  (5) 
[6.06987]

>  <score>  (5) 
6.06987

>  <index>  (5) 
4

>  <Smiles>  (5) 
C([C@]1(C(N(c2c(nc(c3c(c(c(c(c23)[H])[H])[H])[H])[H])[H])C(=O)[C@]21C(N(C(c1nc(c(n1C([H])([H])[H])[H])[H])([H])[H])C(=O)c1c(c(c(F)c(c21)[H])[H])[H])([H])[H])([H])[H])[H])([H])([H])[H]

>  <h>  (5) 
<NA>

>  <Training>  (5) 
True

>  <Success>  (5) 
True

>  <enamine_searched>  (5) 
False

>  <enamine_id>  (5) 
nan

$$$$

     RDKit          3D

 58 61  0  0  0  0  0  0  0  0999 V2000
   -5.0901   -3.0646  -22.4362 C   0  0  0  0  0  0  0  0  0  0  0  0
   -6.4078   -3.2410  -22.4108 C   0  0  0  0  0  0  0  0  0  0  0  0
   -7.3907   -2.7891  -21.3690 C   0  0  0  0  0  0  0  0  0  0  0  0
   -7.4263   -1.3423  -21.1994 N   0  0  0  0  0  0  0  0  0  0  0  0
   -8.2480   -0.4591  -21.8858 C   0  0  0  0  0  0  0  0  0  0  0  0
   -8.3614    0.6973  -21.5037 O   0  0  0  0  0  0  0  0  0  0  0  0
   -8.9707   -0.9561  -23.1497 C   0  0  2  0  0  0  0  0  0  0  0  0
   -8.5021   -0.1255  -24.3689 C   0  0  0  0  0  0  0  0  0  0  0  0
   -9.0178    1.2377  -24.3484 N   0  0  0  0  0  0  0  0  0  0  0  0
   -8.1870    2.3054  -24.8569 C   0  0  0  0  0  0  0  0  0  0  0  0
   -7.1592    2.7621  -23.8233 C   0  0  0  0  0  0  0  0  0  0  0  0
   -5.9751    2.4946  -23.9381 O   0  0  0  0  0  0  0  0  0  0  0  0
   -7.6477    3.4989  -22.7881 N   0  0  0  0  0  0  0  0  0  0  0  0
   -6.7473    3.7995  -21.6909 C   0  0  0  0  0  0  0  0  0  0  0  0
   -7.2963    4.3158  -20.9011 H   0  0  0  0  0  0  0  0  0  0  0  0
   -5.9455    4.4530  -22.0435 H   0  0  0  0  0  0  0  0  0  0  0  0
   -6.2980    2.8739  -21.3012 H   0  0  0  0  0  0  0  0  0  0  0  0
   -8.6306    3.4030  -22.5623 H   0  0  0  0  0  0  0  0  0  0  0  0
   -8.8547    3.1300  -25.1160 H   0  0  0  0  0  0  0  0  0  0  0  0
   -7.6551    1.9620  -25.7469 H   0  0  0  0  0  0  0  0  0  0  0  0
  -10.2755    1.5613  -23.9323 C   0  0  0  0  0  0  0  0  0  0  0  0
  -10.7192    2.7032  -24.0110 O   0  0  0  0  0  0  0  0  0  0  0  0
  -11.0720    0.4508  -23.3420 C   0  0  0  0  0  0  0  0  0  0  0  0
  -12.4301    0.6713  -23.1221 C   0  0  0  0  0  0  0  0  0  0  0  0
  -13.2133   -0.3155  -22.5579 C   0  0  0  0  0  0  0  0  0  0  0  0
  -12.6098   -1.5217  -22.2042 C   0  0  0  0  0  0  0  0  0  0  0  0
  -13.5703   -2.7590  -21.4558 Cl  0  0  0  0  0  0  0  0  0  0  0  0
  -11.2563   -1.7446  -22.4070 C   0  0  0  0  0  0  0  0  0  0  0  0
  -10.4685   -0.7553  -22.9894 C   0  0  0  0  0  0  0  0  0  0  0  0
  -10.8148   -2.6908  -22.1091 H   0  0  0  0  0  0  0  0  0  0  0  0
  -14.2718   -0.1536  -22.3771 H   0  0  0  0  0  0  0  0  0  0  0  0
  -12.8364    1.6356  -23.4068 H   0  0  0  0  0  0  0  0  0  0  0  0
   -7.4069   -0.0690  -24.3885 H   0  0  0  0  0  0  0  0  0  0  0  0
   -8.8336   -0.6281  -25.2863 H   0  0  0  0  0  0  0  0  0  0  0  0
   -8.7328   -2.0176  -23.3437 H   0  0  0  0  0  0  0  0  0  0  0  0
   -6.6344   -0.7842  -20.1692 C   0  0  0  0  0  0  0  0  0  0  0  0
   -6.9406   -1.0533  -18.8596 C   0  0  0  0  0  0  0  0  0  0  0  0
   -6.2528   -0.5732  -17.8033 N   0  0  0  0  0  0  0  0  0  0  0  0
   -5.2216    0.1988  -18.0654 C   0  0  0  0  0  0  0  0  0  0  0  0
   -4.7981    0.5555  -19.3764 C   0  0  0  0  0  0  0  0  0  0  0  0
   -3.6583    1.3692  -19.6068 C   0  0  0  0  0  0  0  0  0  0  0  0
   -3.2810    1.6974  -20.8814 C   0  0  0  0  0  0  0  0  0  0  0  0
   -4.0227    1.2322  -21.9864 C   0  0  0  0  0  0  0  0  0  0  0  0
   -5.0967    0.3943  -21.7887 C   0  0  0  0  0  0  0  0  0  0  0  0
   -5.5297    0.0572  -20.4777 C   0  0  0  0  0  0  0  0  0  0  0  0
   -5.6155   -0.0217  -22.6488 H   0  0  0  0  0  0  0  0  0  0  0  0
   -3.7476    1.5274  -22.9933 H   0  0  0  0  0  0  0  0  0  0  0  0
   -2.3979    2.3060  -21.0464 H   0  0  0  0  0  0  0  0  0  0  0  0
   -3.0976    1.7213  -18.7457 H   0  0  0  0  0  0  0  0  0  0  0  0
   -4.6580    0.5800  -17.2139 H   0  0  0  0  0  0  0  0  0  0  0  0
   -7.7963   -1.6852  -18.6293 H   0  0  0  0  0  0  0  0  0  0  0  0
   -8.3540   -3.1813  -21.7006 H   0  0  0  0  0  0  0  0  0  0  0  0
   -7.1112   -3.2103  -20.4032 H   0  0  0  0  0  0  0  0  0  0  0  0
   -7.1549   -3.8829  -23.5620 C   0  0  0  0  0  0  0  0  0  0  0  0
   -8.3963   -3.8717  -23.4608 O   0  0  0  0  0  0  0  0  0  0  0  0
   -6.4572   -4.3212  -24.4971 O   0  0  0  0  0  1  0  0  0  0  0  0
   -4.4692   -3.4508  -23.2419 H   0  0  0  0  0  0  0  0  0  0  0  0
   -4.6232   -2.4779  -21.6476 H   0  0  0  0  0  0  0  0  0  0  0  0
  1  2  2  0
  2  3  1  0
  3  4  1  0
  4  5  1  0
  5  6  2  0
  5  7  1  0
  7  8  1  0
  8  9  1  0
  9 10  1  0
 10 11  1  0
 11 12  2  0
 11 13  1  0
 13 14  1  0
 14 15  1  0
 14 16  1  0
 14 17  1  0
 13 18  1  0
 10 19  1  0
 10 20  1  0
  9 21  1  0
 21 22  2  0
 21 23  1  0
 23 24  2  0
 24 25  1  0
 25 26  2  0
 26 27  1  0
 26 28  1  0
 28 29  2  0
 28 30  1  0
 25 31  1  0
 24 32  1  0
  8 33  1  0
  8 34  1  0
  7 35  1  6
  4 36  1  0
 36 37  2  0
 37 38  1  0
 38 39  2  0
 39 40  1  0
 40 41  2  0
 41 42  1  0
 42 43  2  0
 43 44  1  0
 44 45  2  0
 44 46  1  0
 43 47  1  0
 42 48  1  0
 41 49  1  0
 39 50  1  0
 37 51  1  0
  3 52  1  0
  3 53  1  0
  2 54  1  0
 54 55  2  0
 54 56  1  0
  1 57  1  0
  1 58  1  0
 29  7  1  0
 45 36  1  0
 29 23  1  0
 45 40  1  0
M  CHG  1  56  -1
M  END
>  <cnnaffinities>  (6) 
[6.20148]

>  <score>  (6) 
6.20148

>  <index>  (6) 
5

>  <Smiles>  (6) 
C(=C(C(N(C(=O)[C@@]1(C(N(C(C(=O)N(C([H])([H])[H])[H])([H])[H])C(=O)c2c(c(c(Cl)c(c12)[H])[H])[H])([H])[H])[H])c1c(nc(c2c(c(c(c(c12)[H])[H])[H])[H])[H])[H])([H])[H])C(=O)[O-])([H])[H]

>  <h>  (6) 
<NA>

>  <Training>  (6) 
True

>  <Success>  (6) 
True

>  <enamine_searched>  (6) 
False

>  <enamine_id>  (6) 
nan

$$$$

     RDKit          3D

 43 45  0  0  0  0  0  0  0  0999 V2000
  -10.4014   -6.8010  -25.6536 C   0  0  0  0  0  0  0  0  0  0  0  0
   -9.2240   -6.8725  -24.6899 C   0  0  0  0  0  0  0  0  0  0  0  0
   -9.3330   -5.9161  -23.4932 C   0  0  0  0  0  0  0  0  0  0  0  0
   -9.3612   -4.4506  -23.9341 C   0  0  0  0  0  0  0  0  0  0  0  0
   -8.9556   -3.4600  -22.8512 C   0  0  0  0  0  0  0  0  0  0  0  0
   -7.6146   -3.7382  -22.3546 N   0  0  0  0  0  0  0  0  0  0  0  0
   -6.7917   -2.7965  -21.7889 C   0  0  0  0  0  0  0  0  0  0  0  0
   -5.5921   -2.9885  -21.6780 O   0  0  0  0  0  0  0  0  0  0  0  0
   -7.4235   -1.4871  -21.2554 C   0  0  0  0  0  0  0  0  0  0  0  0
   -6.5820   -0.8293  -20.1814 C   0  0  0  0  0  0  0  0  0  0  0  0
   -6.8730   -1.0441  -18.8597 C   0  0  0  0  0  0  0  0  0  0  0  0
   -6.1865   -0.5455  -17.7989 N   0  0  0  0  0  0  0  0  0  0  0  0
   -5.1568    0.2223  -18.0632 C   0  0  0  0  0  0  0  0  0  0  0  0
   -4.7219    0.5340  -19.3794 C   0  0  0  0  0  0  0  0  0  0  0  0
   -3.5922    1.3609  -19.6161 C   0  0  0  0  0  0  0  0  0  0  0  0
   -3.1964    1.6491  -20.8948 C   0  0  0  0  0  0  0  0  0  0  0  0
   -3.9308    1.1373  -21.9846 C   0  0  0  0  0  0  0  0  0  0  0  0
   -5.0184    0.3195  -21.7806 C   0  0  0  0  0  0  0  0  0  0  0  0
   -5.4495   -0.0049  -20.4705 C   0  0  0  0  0  0  0  0  0  0  0  0
   -5.5152   -0.1319  -22.6330 H   0  0  0  0  0  0  0  0  0  0  0  0
   -3.5802    1.3176  -22.9966 H   0  0  0  0  0  0  0  0  0  0  0  0
   -2.3247    2.2718  -21.0833 H   0  0  0  0  0  0  0  0  0  0  0  0
   -3.0524    1.7731  -18.7662 H   0  0  0  0  0  0  0  0  0  0  0  0
   -4.6014    0.6285  -17.2155 H   0  0  0  0  0  0  0  0  0  0  0  0
   -7.7198   -1.6701  -18.5843 H   0  0  0  0  0  0  0  0  0  0  0  0
   -8.4254   -1.6909  -20.8476 H   0  0  0  0  0  0  0  0  0  0  0  0
   -7.5687   -0.7863  -22.0895 H   0  0  0  0  0  0  0  0  0  0  0  0
   -7.1002   -5.0949  -22.5597 C   0  0  0  0  0  0  0  0  0  0  0  0
   -8.2171   -6.1292  -22.4617 C   0  0  0  0  0  0  0  0  0  0  0  0
   -8.6363   -6.0959  -21.4516 H   0  0  0  0  0  0  0  0  0  0  0  0
   -7.8028   -7.1366  -22.5700 H   0  0  0  0  0  0  0  0  0  0  0  0
   -6.3442   -5.2961  -21.8005 H   0  0  0  0  0  0  0  0  0  0  0  0
   -6.5872   -5.1787  -23.5270 H   0  0  0  0  0  0  0  0  0  0  0  0
   -9.6937   -3.4809  -22.0379 H   0  0  0  0  0  0  0  0  0  0  0  0
   -8.9858   -2.4480  -23.2694 H   0  0  0  0  0  0  0  0  0  0  0  0
  -10.3708   -4.2057  -24.2398 H   0  0  0  0  0  0  0  0  0  0  0  0
   -8.7386   -4.2959  -24.8237 H   0  0  0  0  0  0  0  0  0  0  0  0
  -10.2875   -6.1367  -22.9950 H   0  0  0  0  0  0  0  0  0  0  0  0
   -8.2924   -6.6708  -25.2311 H   0  0  0  0  0  0  0  0  0  0  0  0
   -9.1362   -7.9002  -24.3167 H   0  0  0  0  0  0  0  0  0  0  0  0
  -10.3277   -7.5700  -26.4303 H   0  0  0  0  0  0  0  0  0  0  0  0
  -10.4633   -5.8303  -26.1542 H   0  0  0  0  0  0  0  0  0  0  0  0
  -11.3464   -6.9557  -25.1232 H   0  0  0  0  0  0  0  0  0  0  0  0
  1  2  1  0
  2  3  1  0
  3  4  1  0
  4  5  1  0
  5  6  1  0
  6  7  1  0
  7  8  2  0
  7  9  1  0
  9 10  1  0
 10 11  2  0
 11 12  1  0
 12 13  2  0
 13 14  1  0
 14 15  2  0
 15 16  1  0
 16 17  2  0
 17 18  1  0
 18 19  2  0
 18 20  1  0
 17 21  1  0
 16 22  1  0
 15 23  1  0
 13 24  1  0
 11 25  1  0
  9 26  1  0
  9 27  1  0
  6 28  1  0
 28 29  1  0
 29 30  1  0
 29 31  1  0
 28 32  1  0
 28 33  1  0
  5 34  1  0
  5 35  1  0
  4 36  1  0
  4 37  1  0
  3 38  1  0
  2 39  1  0
  2 40  1  0
  1 41  1  0
  1 42  1  0
  1 43  1  0
 29  3  1  0
 19 10  1  0
 19 14  1  0
M  END
>  <cnnaffinities>  (7) 
[4.41376, 4.41345, 4.25124, 4.25022]

>  <score>  (7) 
4.41376

>  <index>  (7) 
6

>  <Smiles>  (7) 
C(C(C1(C(C(N(C(=O)C(c2c(nc(c3c(c(c(c(c23)[H])[H])[H])[H])[H])[H])([H])[H])C(C1([H])[H])([H])[H])([H])[H])([H])[H])[H])([H])[H])([H])([H])[H]

>  <h>  (7) 
<NA>

>  <Training>  (7) 
True

>  <Success>  (7) 
True

>  <enamine_searched>  (7) 
False

>  <enamine_id>  (7) 
nan

$$$$

     RDKit          3D

 44 47  0  0  0  0  0  0  0  0999 V2000
   -8.8899   -7.8947  -23.5681 C   0  0  0  0  0  0  0  0  0  0  0  0
   -8.9383   -7.3029  -24.9686 C   0  0  0  0  0  0  0  0  0  0  0  0
   -9.2833   -5.5482  -24.9838 S   0  0  0  0  0  0  0  0  0  0  0  0
  -10.5028   -5.3530  -24.2062 O   0  0  0  0  0  0  0  0  0  0  0  0
   -9.2026   -5.0899  -26.3560 O   0  0  0  0  0  0  0  0  0  0  0  0
   -7.9903   -4.8045  -24.1703 N   0  0  0  0  0  0  0  0  0  0  0  0
   -7.9857   -3.3008  -24.2798 C   0  0  0  0  0  0  0  0  0  0  0  0
   -8.0700   -3.1826  -22.7349 C   0  0  0  0  0  0  0  0  0  0  0  0
   -8.0860   -4.7231  -22.6885 C   0  0  0  0  0  0  0  0  0  0  0  0
   -7.1842   -5.1294  -22.2341 H   0  0  0  0  0  0  0  0  0  0  0  0
   -8.9861   -5.1662  -22.2540 H   0  0  0  0  0  0  0  0  0  0  0  0
   -6.8692   -2.5427  -22.0515 C   0  0  0  0  0  0  0  0  0  0  0  0
   -5.7085   -2.8313  -22.2128 O   0  0  0  0  0  0  0  0  0  0  0  0
   -7.3661   -1.5394  -21.2165 N   0  0  0  0  0  0  0  0  0  0  0  0
   -6.6010   -0.8672  -20.2023 C   0  0  0  0  0  0  0  0  0  0  0  0
   -6.9120   -1.0680  -18.8791 C   0  0  0  0  0  0  0  0  0  0  0  0
   -6.2161   -0.5556  -17.8324 N   0  0  0  0  0  0  0  0  0  0  0  0
   -5.1824    0.2026  -18.0967 C   0  0  0  0  0  0  0  0  0  0  0  0
   -4.7550    0.5272  -19.4124 C   0  0  0  0  0  0  0  0  0  0  0  0
   -3.6234    1.3635  -19.6325 C   0  0  0  0  0  0  0  0  0  0  0  0
   -3.2407    1.6848  -20.9049 C   0  0  0  0  0  0  0  0  0  0  0  0
   -3.9879    1.1951  -21.9975 C   0  0  0  0  0  0  0  0  0  0  0  0
   -5.0758    0.3754  -21.8086 C   0  0  0  0  0  0  0  0  0  0  0  0
   -5.4895   -0.0009  -20.5023 C   0  0  0  0  0  0  0  0  0  0  0  0
   -5.5973   -0.0352  -22.6659 H   0  0  0  0  0  0  0  0  0  0  0  0
   -3.6635    1.4178  -23.0085 H   0  0  0  0  0  0  0  0  0  0  0  0
   -2.3680    2.3084  -21.0850 H   0  0  0  0  0  0  0  0  0  0  0  0
   -3.0813    1.7465  -18.7710 H   0  0  0  0  0  0  0  0  0  0  0  0
   -4.6314    0.6060  -17.2455 H   0  0  0  0  0  0  0  0  0  0  0  0
   -7.7597   -1.6877  -18.6020 H   0  0  0  0  0  0  0  0  0  0  0  0
   -8.7594   -1.3847  -21.4093 C   0  0  0  0  0  0  0  0  0  0  0  0
   -9.4387   -0.4613  -21.0170 O   0  0  0  0  0  0  0  0  0  0  0  0
   -9.1704   -2.4513  -22.1700 N   0  0  0  0  0  0  0  0  0  0  0  0
  -10.5642   -2.7690  -22.4125 C   0  0  0  0  0  0  0  0  0  0  0  0
  -11.1430   -1.9721  -21.9456 H   0  0  0  0  0  0  0  0  0  0  0  0
  -10.8393   -3.7356  -21.9678 H   0  0  0  0  0  0  0  0  0  0  0  0
  -10.7742   -2.8026  -23.4874 H   0  0  0  0  0  0  0  0  0  0  0  0
   -8.8369   -2.8811  -24.8289 H   0  0  0  0  0  0  0  0  0  0  0  0
   -7.0569   -2.9339  -24.7163 H   0  0  0  0  0  0  0  0  0  0  0  0
   -9.7671   -7.7216  -25.5560 H   0  0  0  0  0  0  0  0  0  0  0  0
   -8.0141   -7.4390  -25.5372 H   0  0  0  0  0  0  0  0  0  0  0  0
   -8.7953   -8.9802  -23.6423 H   0  0  0  0  0  0  0  0  0  0  0  0
   -9.8056   -7.6628  -23.0196 H   0  0  0  0  0  0  0  0  0  0  0  0
   -8.0322   -7.5174  -23.0019 H   0  0  0  0  0  0  0  0  0  0  0  0
  1  2  1  0
  2  3  1  0
  3  4  2  0
  3  5  2  0
  3  6  1  0
  6  7  1  0
  7  8  1  0
  8  9  1  0
  9 10  1  0
  9 11  1  0
  8 12  1  0
 12 13  2  0
 12 14  1  0
 14 15  1  0
 15 16  2  0
 16 17  1  0
 17 18  2  0
 18 19  1  0
 19 20  2  0
 20 21  1  0
 21 22  2  0
 22 23  1  0
 23 24  2  0
 23 25  1  0
 22 26  1  0
 21 27  1  0
 20 28  1  0
 18 29  1  0
 16 30  1  0
 14 31  1  0
 31 32  2  0
 31 33  1  0
 33 34  1  0
 34 35  1  0
 34 36  1  0
 34 37  1  0
  7 38  1  0
  7 39  1  0
  2 40  1  0
  2 41  1  0
  1 42  1  0
  1 43  1  0
  1 44  1  0
  9  6  1  0
 24 15  1  0
 33  8  1  0
 24 19  1  0
M  END
>  <cnnaffinities>  (8) 
[4.67362, 4.68852]

>  <score>  (8) 
4.67362

>  <index>  (8) 
7

>  <Smiles>  (8) 
C(C(S(=O)(=O)N1C(C2(C1([H])[H])C(=O)N(c1c(nc(c3c(c(c(c(c13)[H])[H])[H])[H])[H])[H])C(=O)N2C([H])([H])[H])([H])[H])([H])[H])([H])([H])[H]

>  <h>  (8) 
<NA>

>  <Training>  (8) 
True

>  <Success>  (8) 
True

>  <enamine_searched>  (8) 
False

>  <enamine_id>  (8) 
nan

$$$$

     RDKit          3D

 60 64  0  0  0  0  0  0  0  0999 V2000
   -7.4119    3.3824  -21.7873 C   0  0  0  0  0  0  0  0  0  0  0  0
   -8.2827    2.9250  -22.8511 N   0  0  0  0  0  0  0  0  0  0  0  0
   -7.7135    2.2371  -23.8719 C   0  0  0  0  0  0  0  0  0  0  0  0
   -6.4998    2.1335  -23.9873 O   0  0  0  0  0  0  0  0  0  0  0  0
   -8.6626    1.6169  -24.8973 C   0  0  0  0  0  0  0  0  0  0  0  0
   -9.3864    0.4627  -24.3968 N   0  0  0  0  0  0  0  0  0  0  0  0
   -8.6726   -0.7954  -24.2305 C   0  0  0  0  0  0  0  0  0  0  0  0
   -9.0672   -1.5175  -22.9139 C   0  0  2  0  0  0  0  0  0  0  0  0
   -8.5151   -0.7274  -21.6931 C   0  0  0  0  0  0  0  0  0  0  0  0
   -8.9599    0.2955  -21.2209 O   0  0  0  0  0  0  0  0  0  0  0  0
   -7.4065   -1.3841  -21.2028 N   0  0  0  0  0  0  0  0  0  0  0  0
   -6.6071   -0.8083  -20.1735 C   0  0  0  0  0  0  0  0  0  0  0  0
   -6.9083   -1.0464  -18.8584 C   0  0  0  0  0  0  0  0  0  0  0  0
   -6.2031   -0.5572  -17.8078 N   0  0  0  0  0  0  0  0  0  0  0  0
   -5.1690    0.2042  -18.0735 C   0  0  0  0  0  0  0  0  0  0  0  0
   -4.7370    0.5387  -19.3873 C   0  0  0  0  0  0  0  0  0  0  0  0
   -3.6107    1.3754  -19.6308 C   0  0  0  0  0  0  0  0  0  0  0  0
   -3.2361    1.6850  -20.9095 C   0  0  0  0  0  0  0  0  0  0  0  0
   -3.9775    1.1827  -22.0015 C   0  0  0  0  0  0  0  0  0  0  0  0
   -5.0639    0.3657  -21.7925 C   0  0  0  0  0  0  0  0  0  0  0  0
   -5.4797    0.0225  -20.4790 C   0  0  0  0  0  0  0  0  0  0  0  0
   -5.5965   -0.0464  -22.6448 H   0  0  0  0  0  0  0  0  0  0  0  0
   -3.6731    1.4037  -23.0190 H   0  0  0  0  0  0  0  0  0  0  0  0
   -2.3672    2.3115  -21.0933 H   0  0  0  0  0  0  0  0  0  0  0  0
   -3.0677    1.7672  -18.7744 H   0  0  0  0  0  0  0  0  0  0  0  0
   -4.6205    0.6094  -17.2219 H   0  0  0  0  0  0  0  0  0  0  0  0
   -7.7624   -1.6696  -18.6031 H   0  0  0  0  0  0  0  0  0  0  0  0
   -7.0700   -2.5977  -21.9211 C   0  0  0  0  0  0  0  0  0  0  0  0
   -8.3307   -2.8874  -22.7613 C   0  0  2  0  0  0  0  0  0  0  0  0
   -7.9813   -3.6549  -24.0346 C   0  0  0  0  0  0  0  0  0  0  0  0
   -9.1508   -3.9345  -24.7630 O   0  0  0  0  0  0  0  0  0  0  0  0
   -8.8682   -4.5821  -25.9804 C   0  0  0  0  0  0  0  0  0  0  0  0
   -8.2692   -3.9463  -26.6526 H   0  0  0  0  0  0  0  0  0  0  0  0
   -8.3152   -5.5204  -25.8192 H   0  0  0  0  0  0  0  0  0  0  0  0
   -9.8221   -4.8086  -26.4614 H   0  0  0  0  0  0  0  0  0  0  0  0
   -7.2778   -3.0677  -24.6495 H   0  0  0  0  0  0  0  0  0  0  0  0
   -7.4688   -4.5990  -23.7795 H   0  0  0  0  0  0  0  0  0  0  0  0
   -9.0007   -3.5239  -22.1844 H   0  0  0  0  0  0  0  0  0  0  0  0
   -6.1875   -2.4445  -22.5647 H   0  0  0  0  0  0  0  0  0  0  0  0
   -6.8294   -3.4091  -21.2218 H   0  0  0  0  0  0  0  0  0  0  0  0
  -10.5918   -1.5649  -22.8515 C   0  0  0  0  0  0  0  0  0  0  0  0
  -11.2346   -2.4069  -21.9328 C   0  0  0  0  0  0  0  0  0  0  0  0
  -12.6101   -2.3558  -21.7934 C   0  0  0  0  0  0  0  0  0  0  0  0
  -13.4141   -3.1790  -20.4906 Cl  0  0  0  0  0  0  0  0  0  0  0  0
  -13.3861   -1.5528  -22.6283 C   0  0  0  0  0  0  0  0  0  0  0  0
  -12.7645   -0.6702  -23.4858 C   0  0  0  0  0  0  0  0  0  0  0  0
  -11.3736   -0.6364  -23.5575 C   0  0  0  0  0  0  0  0  0  0  0  0
  -10.7519    0.5077  -24.3042 C   0  0  0  0  0  0  0  0  0  0  0  0
  -11.4296    1.4253  -24.7529 O   0  0  0  0  0  0  0  0  0  0  0  0
  -13.3143    0.0745  -24.0564 H   0  0  0  0  0  0  0  0  0  0  0  0
  -14.4618   -1.5909  -22.5482 H   0  0  0  0  0  0  0  0  0  0  0  0
  -10.6577   -3.0698  -21.2999 H   0  0  0  0  0  0  0  0  0  0  0  0
   -8.8831   -1.4710  -25.0724 H   0  0  0  0  0  0  0  0  0  0  0  0
   -7.6026   -0.5562  -24.2155 H   0  0  0  0  0  0  0  0  0  0  0  0
   -9.4331    2.3217  -25.2191 H   0  0  0  0  0  0  0  0  0  0  0  0
   -8.0323    1.3397  -25.7507 H   0  0  0  0  0  0  0  0  0  0  0  0
   -9.2777    2.8361  -22.6887 H   0  0  0  0  0  0  0  0  0  0  0  0
   -6.7155    4.1449  -22.1540 H   0  0  0  0  0  0  0  0  0  0  0  0
   -6.8201    2.5375  -21.3997 H   0  0  0  0  0  0  0  0  0  0  0  0
   -8.0268    3.8256  -21.0054 H   0  0  0  0  0  0  0  0  0  0  0  0
  1  2  1  0
  2  3  1  0
  3  4  2  0
  3  5  1  0
  5  6  1  0
  6  7  1  0
  8  7  1  6
  8  9  1  0
  9 10  2  0
  9 11  1  0
 11 12  1  0
 12 13  2  0
 13 14  1  0
 14 15  2  0
 15 16  1  0
 16 17  2  0
 17 18  1  0
 18 19  2  0
 19 20  1  0
 20 21  2  0
 20 22  1  0
 19 23  1  0
 18 24  1  0
 17 25  1  0
 15 26  1  0
 13 27  1  0
 11 28  1  0
 28 29  1  0
 29 30  1  0
 30 31  1  0
 31 32  1  0
 32 33  1  0
 32 34  1  0
 32 35  1  0
 30 36  1  0
 30 37  1  0
 29 38  1  1
 28 39  1  0
 28 40  1  0
  8 41  1  0
 41 42  2  0
 42 43  1  0
 43 44  1  0
 43 45  2  0
 45 46  1  0
 46 47  2  0
 47 48  1  0
 48 49  2  0
 46 50  1  0
 45 51  1  0
 42 52  1  0
  7 53  1  0
  7 54  1  0
  5 55  1  0
  5 56  1  0
  2 57  1  0
  1 58  1  0
  1 59  1  0
  1 60  1  0
 48  6  1  0
 29  8  1  0
 47 41  1  0
 21 12  1  0
 21 16  1  0
M  END
>  <cnnaffinities>  (9) 
[6.08943, 6.09437, 5.78437, 6.39839]

>  <score>  (9) 
6.08943

>  <index>  (9) 
8

>  <Smiles>  (9) 
C(N(C(=O)C(N1C([C@@]2(C(=O)N(c3c(nc(c4c(c(c(c(c34)[H])[H])[H])[H])[H])[H])C([C@@]2(C(OC([H])([H])[H])([H])[H])[H])([H])[H])c2c(c(Cl)c(c(c2C1=O)[H])[H])[H])([H])[H])([H])[H])[H])([H])([H])[H]

>  <h>  (9) 
<NA>

>  <Training>  (9) 
True

>  <Success>  (9) 
True

>  <enamine_searched>  (9) 
False

>  <enamine_id>  (9) 
nan

$$$$

     RDKit          3D

 41 43  0  0  0  0  0  0  0  0999 V2000
  -13.1788   -2.9271  -22.9032 C   0  0  0  0  0  0  0  0  0  0  0  0
  -11.9698   -2.0467  -23.2134 C   0  0  1  0  0  0  0  0  0  0  0  0
  -12.1571   -0.6581  -22.6425 C   0  0  0  0  0  0  0  0  0  0  0  0
  -11.3190    0.3565  -22.8353 C   0  0  0  0  0  0  0  0  0  0  0  0
  -10.0218    0.2182  -23.6035 C   0  0  0  0  0  0  0  0  0  0  0  0
   -9.0914   -0.7826  -23.0598 N   0  0  0  0  0  0  0  0  0  0  0  0
   -8.3782   -0.4049  -21.9322 C   0  0  0  0  0  0  0  0  0  0  0  0
   -8.4822    0.7170  -21.4722 O   0  0  0  0  0  0  0  0  0  0  0  0
   -7.4312   -1.4331  -21.2737 C   0  0  0  0  0  0  0  0  0  0  0  0
   -6.5796   -0.8283  -20.1815 C   0  0  0  0  0  0  0  0  0  0  0  0
   -6.8777   -1.0408  -18.8622 C   0  0  0  0  0  0  0  0  0  0  0  0
   -6.1918   -0.5403  -17.7996 N   0  0  0  0  0  0  0  0  0  0  0  0
   -5.1575    0.2201  -18.0638 C   0  0  0  0  0  0  0  0  0  0  0  0
   -4.7253    0.5372  -19.3787 C   0  0  0  0  0  0  0  0  0  0  0  0
   -3.5992    1.3676  -19.6184 C   0  0  0  0  0  0  0  0  0  0  0  0
   -3.2173    1.6717  -20.8969 C   0  0  0  0  0  0  0  0  0  0  0  0
   -3.9596    1.1692  -21.9867 C   0  0  0  0  0  0  0  0  0  0  0  0
   -5.0447    0.3502  -21.7821 C   0  0  0  0  0  0  0  0  0  0  0  0
   -5.4583    0.0076  -20.4702 C   0  0  0  0  0  0  0  0  0  0  0  0
   -5.5741   -0.0627  -22.6346 H   0  0  0  0  0  0  0  0  0  0  0  0
   -3.6293    1.3781  -22.9997 H   0  0  0  0  0  0  0  0  0  0  0  0
   -2.3510    2.3025  -21.0860 H   0  0  0  0  0  0  0  0  0  0  0  0
   -3.0554    1.7732  -18.7682 H   0  0  0  0  0  0  0  0  0  0  0  0
   -4.6024    0.6270  -17.2153 H   0  0  0  0  0  0  0  0  0  0  0  0
   -7.7297   -1.6605  -18.5858 H   0  0  0  0  0  0  0  0  0  0  0  0
   -6.7952   -1.8990  -22.0383 H   0  0  0  0  0  0  0  0  0  0  0  0
   -8.0408   -2.2442  -20.8459 H   0  0  0  0  0  0  0  0  0  0  0  0
   -9.3946   -2.1694  -23.3972 C   0  0  0  0  0  0  0  0  0  0  0  0
  -10.6665   -2.7290  -22.7519 C   0  0  0  0  0  0  0  0  0  0  0  0
  -10.5864   -2.6374  -21.6636 H   0  0  0  0  0  0  0  0  0  0  0  0
  -10.7250   -3.8065  -22.9663 H   0  0  0  0  0  0  0  0  0  0  0  0
   -8.5299   -2.7925  -23.1557 H   0  0  0  0  0  0  0  0  0  0  0  0
   -9.5101   -2.2193  -24.4853 H   0  0  0  0  0  0  0  0  0  0  0  0
  -10.2446   -0.0757  -24.6359 H   0  0  0  0  0  0  0  0  0  0  0  0
   -9.5074    1.1791  -23.6526 H   0  0  0  0  0  0  0  0  0  0  0  0
  -11.5316    1.3286  -22.3887 H   0  0  0  0  0  0  0  0  0  0  0  0
  -13.0301   -0.4936  -22.0102 H   0  0  0  0  0  0  0  0  0  0  0  0
  -11.9045   -1.9390  -24.3039 H   0  0  0  0  0  0  0  0  0  0  0  0
  -13.0968   -3.9090  -23.3858 H   0  0  0  0  0  0  0  0  0  0  0  0
  -13.2642   -3.0898  -21.8217 H   0  0  0  0  0  0  0  0  0  0  0  0
  -14.1064   -2.4566  -23.2510 H   0  0  0  0  0  0  0  0  0  0  0  0
  1  2  1  0
  2  3  1  0
  3  4  2  0
  4  5  1  0
  5  6  1  0
  6  7  1  0
  7  8  2  0
  7  9  1  0
  9 10  1  0
 10 11  2  0
 11 12  1  0
 12 13  2  0
 13 14  1  0
 14 15  2  0
 15 16  1  0
 16 17  2  0
 17 18  1  0
 18 19  2  0
 18 20  1  0
 17 21  1  0
 16 22  1  0
 15 23  1  0
 13 24  1  0
 11 25  1  0
  9 26  1  0
  9 27  1  0
  6 28  1  0
 28 29  1  0
 29 30  1  0
 29 31  1  0
 28 32  1  0
 28 33  1  0
  5 34  1  0
  5 35  1  0
  4 36  1  0
  3 37  1  0
  2 38  1  6
  1 39  1  0
  1 40  1  0
  1 41  1  0
 29  2  1  0
 19 10  1  0
 19 14  1  0
M  END
>  <cnnaffinities>  (10) 
[4.62807, 4.56755]

>  <score>  (10) 
4.62807

>  <index>  (10) 
9

>  <Smiles>  (10) 
C([C@]1(C(=C(C(N(C(=O)C(c2c(nc(c3c(c(c(c(c23)[H])[H])[H])[H])[H])[H])([H])[H])C(C1([H])[H])([H])[H])([H])[H])[H])[H])[H])([H])([H])[H]

>  <h>  (10) 
<NA>

>  <Training>  (10) 
True

>  <Success>  (10) 
True

>  <enamine_searched>  (10) 
False

>  <enamine_id>  (10) 
nan

$$$$

     RDKit          3D

 57 62  0  0  0  0  0  0  0  0999 V2000
  -10.3144   -2.5385  -22.2681 C   0  0  0  0  0  0  0  0  0  0  0  0
   -9.0242   -1.8832  -22.7916 C   0  0  1  0  0  0  0  0  0  0  0  0
   -8.5047   -0.8326  -21.7867 C   0  0  0  0  0  0  0  0  0  0  0  0
   -7.3546   -1.4555  -21.1759 N   0  0  0  0  0  0  0  0  0  0  0  0
   -6.5793   -0.8395  -20.1639 C   0  0  0  0  0  0  0  0  0  0  0  0
   -6.8983   -1.0634  -18.8519 C   0  0  0  0  0  0  0  0  0  0  0  0
   -6.2131   -0.5533  -17.7991 N   0  0  0  0  0  0  0  0  0  0  0  0
   -5.1844    0.2140  -18.0705 C   0  0  0  0  0  0  0  0  0  0  0  0
   -4.7524    0.5352  -19.3903 C   0  0  0  0  0  0  0  0  0  0  0  0
   -3.6262    1.3667  -19.6232 C   0  0  0  0  0  0  0  0  0  0  0  0
   -3.2464    1.6777  -20.8991 C   0  0  0  0  0  0  0  0  0  0  0  0
   -3.9812    1.1825  -22.0001 C   0  0  0  0  0  0  0  0  0  0  0  0
   -5.0586    0.3509  -21.8076 C   0  0  0  0  0  0  0  0  0  0  0  0
   -5.4693    0.0041  -20.4850 C   0  0  0  0  0  0  0  0  0  0  0  0
   -5.5798   -0.0599  -22.6733 H   0  0  0  0  0  0  0  0  0  0  0  0
   -3.6612    1.4251  -23.0099 H   0  0  0  0  0  0  0  0  0  0  0  0
   -2.3767    2.3037  -21.0798 H   0  0  0  0  0  0  0  0  0  0  0  0
   -3.0819    1.7478  -18.7638 H   0  0  0  0  0  0  0  0  0  0  0  0
   -4.6311    0.6323  -17.2285 H   0  0  0  0  0  0  0  0  0  0  0  0
   -7.7436   -1.7062  -18.6078 H   0  0  0  0  0  0  0  0  0  0  0  0
   -6.8953   -2.5732  -21.8289 C   0  0  0  0  0  0  0  0  0  0  0  0
   -5.9207   -3.2106  -21.4936 O   0  0  0  0  0  0  0  0  0  0  0  0
   -7.8271   -2.8477  -23.0246 C   0  0  1  0  0  0  0  0  0  0  0  0
   -8.2521   -4.3125  -23.0062 C   0  0  0  0  0  0  0  0  0  0  0  0
   -7.1009   -5.1450  -23.2393 N   0  0  0  0  0  0  0  0  0  0  0  0
   -7.0378   -6.3381  -22.4290 C   0  0  0  0  0  0  0  0  0  0  0  0
   -8.0434   -7.3503  -22.8855 C   0  0  0  0  0  0  0  0  0  0  0  0
   -7.7142   -8.2828  -23.7896 C   0  0  0  0  0  0  0  0  0  0  0  0
   -8.8483   -8.9724  -24.1315 N   0  0  0  0  0  4  0  0  0  0  0  0
   -9.8797   -8.4495  -23.4779 C   0  0  0  0  0  0  0  0  0  0  0  0
   -9.4210   -7.4425  -22.7204 N   0  0  0  0  0  0  0  0  0  0  0  0
  -10.0155   -6.8720  -22.1324 H   0  0  0  0  0  0  0  0  0  0  0  0
  -10.8995   -8.7730  -23.5572 H   0  0  0  0  0  0  0  0  0  0  0  0
   -8.8423   -9.7195  -24.8107 H   0  0  0  0  0  0  0  0  0  0  0  0
   -6.7472   -8.4744  -24.2275 H   0  0  0  0  0  0  0  0  0  0  0  0
   -7.1187   -6.0252  -21.3784 H   0  0  0  0  0  0  0  0  0  0  0  0
   -6.0543   -6.7837  -22.5898 H   0  0  0  0  0  0  0  0  0  0  0  0
   -6.3534   -5.0237  -24.3787 C   0  0  0  0  0  0  0  0  0  0  0  0
   -5.6845   -5.9405  -24.8473 O   0  0  0  0  0  0  0  0  0  0  0  0
   -6.3786   -3.6497  -24.9700 C   0  0  0  0  0  0  0  0  0  0  0  0
   -5.6575   -3.4217  -26.1428 C   0  0  0  0  0  0  0  0  0  0  0  0
   -5.5808   -2.1482  -26.6757 C   0  0  0  0  0  0  0  0  0  0  0  0
   -6.2297   -1.1155  -26.0065 C   0  0  0  0  0  0  0  0  0  0  0  0
   -6.1341    0.1333  -26.5003 F   0  0  0  0  0  0  0  0  0  0  0  0
   -6.9622   -1.3191  -24.8523 C   0  0  0  0  0  0  0  0  0  0  0  0
   -7.0669   -2.6104  -24.3260 C   0  0  0  0  0  0  0  0  0  0  0  0
   -7.4427   -0.4666  -24.3811 H   0  0  0  0  0  0  0  0  0  0  0  0
   -5.0140   -1.9238  -27.5722 H   0  0  0  0  0  0  0  0  0  0  0  0
   -5.1551   -4.2667  -26.6055 H   0  0  0  0  0  0  0  0  0  0  0  0
   -8.6683   -4.5801  -22.0318 H   0  0  0  0  0  0  0  0  0  0  0  0
   -9.0106   -4.4893  -23.7829 H   0  0  0  0  0  0  0  0  0  0  0  0
   -9.2475   -0.5858  -21.0212 H   0  0  0  0  0  0  0  0  0  0  0  0
   -8.2239    0.1016  -22.2921 H   0  0  0  0  0  0  0  0  0  0  0  0
   -9.2880   -1.4242  -23.7497 H   0  0  0  0  0  0  0  0  0  0  0  0
  -10.1529   -3.0380  -21.3057 H   0  0  0  0  0  0  0  0  0  0  0  0
  -10.7124   -3.2762  -22.9729 H   0  0  0  0  0  0  0  0  0  0  0  0
  -11.0910   -1.7796  -22.1223 H   0  0  0  0  0  0  0  0  0  0  0  0
  1  2  1  0
  2  3  1  0
  3  4  1  0
  4  5  1  0
  5  6  2  0
  6  7  1  0
  7  8  2  0
  8  9  1  0
  9 10  2  0
 10 11  1  0
 11 12  2  0
 12 13  1  0
 13 14  2  0
 13 15  1  0
 12 16  1  0
 11 17  1  0
 10 18  1  0
  8 19  1  0
  6 20  1  0
  4 21  1  0
 21 22  2  0
 21 23  1  0
 23 24  1  6
 24 25  1  0
 25 26  1  0
 26 27  1  0
 27 28  2  0
 28 29  1  0
 29 30  2  0
 30 31  1  0
 31 32  1  0
 30 33  1  0
 29 34  1  0
 28 35  1  0
 26 36  1  0
 26 37  1  0
 25 38  1  0
 38 39  2  0
 38 40  1  0
 40 41  2  0
 41 42  1  0
 42 43  2  0
 43 44  1  0
 43 45  1  0
 45 46  2  0
 45 47  1  0
 42 48  1  0
 41 49  1  0
 24 50  1  0
 24 51  1  0
  3 52  1  0
  3 53  1  0
  2 54  1  6
  1 55  1  0
  1 56  1  0
  1 57  1  0
 23  2  1  0
 31 27  1  0
 46 40  1  0
 14  5  1  0
 46 23  1  0
 14  9  1  0
M  CHG  1  29   1
M  END
>  <cnnaffinities>  (11) 
[6.02541]

>  <score>  (11) 
6.02541

>  <index>  (11) 
10

>  <Smiles>  (11) 
C([C@]1(C(N(c2c(nc(c3c(c(c(c(c23)[H])[H])[H])[H])[H])[H])C(=O)[C@]21C(N(C(c1c([n+](c(n1[H])[H])[H])[H])([H])[H])C(=O)c1c(c(c(F)c(c21)[H])[H])[H])([H])[H])([H])[H])[H])([H])([H])[H]

>  <h>  (11) 
<NA>

>  <Training>  (11) 
True

>  <Success>  (11) 
True

>  <enamine_searched>  (11) 
False

>  <enamine_id>  (11) 
nan

$$$$

     RDKit          3D

 48 52  0  0  0  0  0  0  0  0999 V2000
  -10.4836   -2.3094  -22.4337 C   0  0  0  0  0  0  0  0  0  0  0  0
   -9.0950   -1.9892  -22.1762 N   0  0  0  0  0  0  0  0  0  0  0  0
   -8.7093   -0.9700  -21.3430 C   0  0  0  0  0  0  0  0  0  0  0  0
   -9.3954   -0.0906  -20.8754 O   0  0  0  0  0  0  0  0  0  0  0  0
   -7.3265   -1.1258  -21.1494 N   0  0  0  0  0  0  0  0  0  0  0  0
   -6.5942   -0.5518  -20.0804 C   0  0  0  0  0  0  0  0  0  0  0  0
   -6.8914   -0.8812  -18.7835 C   0  0  0  0  0  0  0  0  0  0  0  0
   -6.1695   -0.4640  -17.7159 N   0  0  0  0  0  0  0  0  0  0  0  0
   -5.1311    0.3032  -17.9526 C   0  0  0  0  0  0  0  0  0  0  0  0
   -4.7204    0.7143  -19.2531 C   0  0  0  0  0  0  0  0  0  0  0  0
   -3.5818    1.5356  -19.4646 C   0  0  0  0  0  0  0  0  0  0  0  0
   -3.2217    1.9048  -20.7317 C   0  0  0  0  0  0  0  0  0  0  0  0
   -3.9817    1.4818  -21.8453 C   0  0  0  0  0  0  0  0  0  0  0  0
   -5.0883    0.6923  -21.6681 C   0  0  0  0  0  0  0  0  0  0  0  0
   -5.4744    0.2809  -20.3610 C   0  0  0  0  0  0  0  0  0  0  0  0
   -5.6701    0.3603  -22.5230 H   0  0  0  0  0  0  0  0  0  0  0  0
   -3.6860    1.7759  -22.8479 H   0  0  0  0  0  0  0  0  0  0  0  0
   -2.3510    2.5331  -20.8957 H   0  0  0  0  0  0  0  0  0  0  0  0
   -3.0136    1.8624  -18.5995 H   0  0  0  0  0  0  0  0  0  0  0  0
   -4.5518    0.6356  -17.0899 H   0  0  0  0  0  0  0  0  0  0  0  0
   -7.7346   -1.5336  -18.5635 H   0  0  0  0  0  0  0  0  0  0  0  0
   -6.8105   -2.1713  -21.9046 C   0  0  0  0  0  0  0  0  0  0  0  0
   -5.6662   -2.5575  -21.8991 O   0  0  0  0  0  0  0  0  0  0  0  0
   -7.9742   -2.7410  -22.6806 C   0  0  0  0  0  0  0  0  0  0  0  0
   -7.7805   -2.8339  -24.2140 C   0  0  0  0  0  0  0  0  0  0  0  0
   -7.8149   -4.3187  -24.1165 N   0  0  0  0  0  0  0  0  0  0  0  0
   -9.0230   -5.0950  -24.9860 S   0  0  0  0  0  0  0  0  0  0  0  0
   -8.9194   -4.6211  -26.3539 O   0  0  0  0  0  0  0  0  0  0  0  0
  -10.2916   -5.0382  -24.2667 O   0  0  0  0  0  0  0  0  0  0  0  0
   -8.4563   -6.8238  -24.8567 C   0  0  0  0  0  0  0  0  0  0  0  0
   -9.8422   -8.1344  -24.7425 C   0  0  0  0  0  0  0  0  0  0  0  0
   -9.4908   -8.2399  -24.8334 C   0  0  0  0  0  0  0  0  0  0  0  0
   -8.8087   -9.1663  -23.7308 C   0  0  0  0  0  0  0  0  0  0  0  0
   -7.6345   -8.5091  -23.3506 C   0  0  0  0  0  0  0  0  0  0  0  0
   -7.4715   -7.2037  -23.9219 C   0  0  0  0  0  0  0  0  0  0  0  0
   -6.6519   -6.5432  -23.6324 H   0  0  0  0  0  0  0  0  0  0  0  0
   -6.9011   -8.9374  -22.6703 H   0  0  0  0  0  0  0  0  0  0  0  0
   -8.7588  -10.2160  -24.0216 H   0  0  0  0  0  0  0  0  0  0  0  0
  -10.1716   -8.5214  -25.8856 H   0  0  0  0  0  0  0  0  0  0  0  0
  -10.7085   -7.6564  -24.1792 H   0  0  0  0  0  0  0  0  0  0  0  0
   -7.9867   -4.2761  -22.6441 C   0  0  0  0  0  0  0  0  0  0  0  0
   -7.1003   -4.6703  -22.1455 H   0  0  0  0  0  0  0  0  0  0  0  0
   -8.8910   -4.7699  -22.2826 H   0  0  0  0  0  0  0  0  0  0  0  0
   -6.8076   -2.4797  -24.5572 H   0  0  0  0  0  0  0  0  0  0  0  0
   -8.5844   -2.3879  -24.8073 H   0  0  0  0  0  0  0  0  0  0  0  0
  -10.6899   -2.3580  -23.5095 H   0  0  0  0  0  0  0  0  0  0  0  0
  -10.7582   -3.2647  -21.9720 H   0  0  0  0  0  0  0  0  0  0  0  0
  -11.0793   -1.5156  -21.9808 H   0  0  0  0  0  0  0  0  0  0  0  0
  1  2  1  0
  2  3  1  0
  3  4  2  0
  3  5  1  0
  5  6  1  0
  6  7  2  0
  7  8  1  0
  8  9  2  0
  9 10  1  0
 10 11  2  0
 11 12  1  0
 12 13  2  0
 13 14  1  0
 14 15  2  0
 14 16  1  0
 13 17  1  0
 12 18  1  0
 11 19  1  0
  9 20  1  0
  7 21  1  0
  5 22  1  0
 22 23  2  0
 22 24  1  0
 24 25  1  0
 25 26  1  0
 26 27  1  0
 27 28  2  0
 27 29  2  0
 27 30  1  0
 30 31  2  0
 31 32  1  0
 32 33  2  0
 33 34  1  0
 34 35  2  0
 35 36  1  0
 34 37  1  0
 33 38  1  0
 32 39  1  0
 31 40  1  0
 26 41  1  0
 41 42  1  0
 41 43  1  0
 25 44  1  0
 25 45  1  0
  1 46  1  0
  1 47  1  0
  1 48  1  0
 24  2  1  0
 35 30  1  0
 15  6  1  0
 41 24  1  0
 15 10  1  0
M  END
>  <cnnaffinities>  (12) 
[5.53841]

>  <score>  (12) 
5.53841

>  <index>  (12) 
11

>  <Smiles>  (12) 
C(N1C(=O)N(c2c(nc(c3c(c(c(c(c23)[H])[H])[H])[H])[H])[H])C(=O)C21C(N(S(=O)(=O)c1c(c(c(c(c1[H])[H])[H])[H])[H])C2([H])[H])([H])[H])([H])([H])[H]

>  <h>  (12) 
<NA>

>  <Training>  (12) 
True

>  <Success>  (12) 
True

>  <enamine_searched>  (12) 
False

>  <enamine_id>  (12) 
nan

$$$$

     RDKit          3D

 76 82  0  0  0  0  0  0  0  0999 V2000
  -10.7346    2.0278  -24.5668 O   0  0  0  0  0  0  0  0  0  0  0  0
  -10.2251    0.9554  -24.2638 C   0  0  0  0  0  0  0  0  0  0  0  0
  -11.0483   -0.1832  -23.7474 C   0  0  0  0  0  0  0  0  0  0  0  0
  -12.4277   -0.0457  -23.8507 C   0  0  0  0  0  0  0  0  0  0  0  0
  -13.2613   -1.0317  -23.3702 C   0  0  0  0  0  0  0  0  0  0  0  0
  -12.6866   -2.1659  -22.7975 C   0  0  0  0  0  0  0  0  0  0  0  0
  -13.7491   -3.3978  -22.1788 Cl  0  0  0  0  0  0  0  0  0  0  0  0
  -11.3134   -2.3299  -22.7004 C   0  0  0  0  0  0  0  0  0  0  0  0
  -10.4621   -1.3158  -23.1619 C   0  0  0  0  0  0  0  0  0  0  0  0
   -8.9594   -1.3451  -22.9756 C   0  0  1  0  0  0  0  0  0  0  0  0
   -8.3376   -0.5994  -24.1904 C   0  0  0  0  0  0  0  0  0  0  0  0
   -8.8876    0.7247  -24.3525 N   0  0  0  0  0  0  0  0  0  0  0  0
   -8.0282    1.8757  -24.5147 C   0  0  0  0  0  0  0  0  0  0  0  0
   -7.8188    2.5863  -23.1803 C   0  0  0  0  0  0  0  0  0  0  0  0
   -6.8827    3.7441  -23.3500 N   0  0  0  0  0  4  0  0  0  0  0  0
   -7.5187    4.9757  -23.9684 C   0  0  0  0  0  0  0  0  0  0  0  0
   -8.3815    5.7219  -22.9596 C   0  0  0  0  0  0  0  0  0  0  0  0
   -7.6176    6.1149  -21.8378 O   0  0  0  0  0  0  0  0  0  0  0  0
   -7.0546    4.9963  -21.1804 C   0  0  0  0  0  0  0  0  0  0  0  0
   -6.1643    4.1667  -22.0981 C   0  0  0  0  0  0  0  0  0  0  0  0
   -5.8095    3.2717  -21.5790 H   0  0  0  0  0  0  0  0  0  0  0  0
   -5.3002    4.7554  -22.4107 H   0  0  0  0  0  0  0  0  0  0  0  0
   -6.4530    5.3943  -20.3606 H   0  0  0  0  0  0  0  0  0  0  0  0
   -7.8511    4.3623  -20.7603 H   0  0  0  0  0  0  0  0  0  0  0  0
   -9.2401    5.1058  -22.6457 H   0  0  0  0  0  0  0  0  0  0  0  0
   -8.7683    6.6384  -23.4116 H   0  0  0  0  0  0  0  0  0  0  0  0
   -6.7067    5.6310  -24.2882 H   0  0  0  0  0  0  0  0  0  0  0  0
   -8.1030    4.6882  -24.8446 H   0  0  0  0  0  0  0  0  0  0  0  0
   -6.1560    3.4095  -24.0052 H   0  0  0  0  0  0  0  0  0  0  0  0
   -8.7786    2.9217  -22.7832 H   0  0  0  0  0  0  0  0  0  0  0  0
   -7.3902    1.8912  -22.4527 H   0  0  0  0  0  0  0  0  0  0  0  0
   -8.5022    2.5397  -25.2414 H   0  0  0  0  0  0  0  0  0  0  0  0
   -7.0635    1.5548  -24.9248 H   0  0  0  0  0  0  0  0  0  0  0  0
   -7.2482   -0.5211  -24.0841 H   0  0  0  0  0  0  0  0  0  0  0  0
   -8.5541   -1.1887  -25.0921 H   0  0  0  0  0  0  0  0  0  0  0  0
   -8.5463   -0.6673  -21.6468 C   0  0  0  0  0  0  0  0  0  0  0  0
   -9.0756    0.2696  -21.0857 O   0  0  0  0  0  0  0  0  0  0  0  0
   -7.4283   -1.3212  -21.1773 N   0  0  0  0  0  0  0  0  0  0  0  0
   -6.6260   -0.7652  -20.1571 C   0  0  0  0  0  0  0  0  0  0  0  0
   -6.9268   -1.0350  -18.8492 C   0  0  0  0  0  0  0  0  0  0  0  0
   -6.2196   -0.5705  -17.7925 N   0  0  0  0  0  0  0  0  0  0  0  0
   -5.1889    0.1966  -18.0584 C   0  0  0  0  0  0  0  0  0  0  0  0
   -4.7673    0.5547  -19.3721 C   0  0  0  0  0  0  0  0  0  0  0  0
   -3.6408    1.3881  -19.6027 C   0  0  0  0  0  0  0  0  0  0  0  0
   -3.2653    1.7182  -20.8763 C   0  0  0  0  0  0  0  0  0  0  0  0
   -4.0039    1.2464  -21.9831 C   0  0  0  0  0  0  0  0  0  0  0  0
   -5.0942    0.4290  -21.7858 C   0  0  0  0  0  0  0  0  0  0  0  0
   -5.5050    0.0623  -20.4715 C   0  0  0  0  0  0  0  0  0  0  0  0
   -5.6280    0.0537  -22.6533 H   0  0  0  0  0  0  0  0  0  0  0  0
   -3.7033    1.5197  -22.9921 H   0  0  0  0  0  0  0  0  0  0  0  0
   -2.3975    2.3477  -21.0457 H   0  0  0  0  0  0  0  0  0  0  0  0
   -3.0918    1.7518  -18.7407 H   0  0  0  0  0  0  0  0  0  0  0  0
   -4.6227    0.5793  -17.2099 H   0  0  0  0  0  0  0  0  0  0  0  0
   -7.7855   -1.6652  -18.6269 H   0  0  0  0  0  0  0  0  0  0  0  0
   -7.0471   -2.4862  -21.9447 C   0  0  0  0  0  0  0  0  0  0  0  0
   -8.2946   -2.7293  -22.8050 C   0  0  2  0  0  0  0  0  0  0  0  0
   -7.9556   -3.4969  -24.0760 C   0  0  0  0  0  0  0  0  0  0  0  0
   -7.4867   -4.8234  -23.7303 N   0  0  0  0  0  0  0  0  0  0  0  0
   -8.3599   -5.8621  -23.6966 C   0  0  0  0  0  0  0  0  0  0  0  0
   -7.8324   -7.0843  -23.5036 N   0  0  0  0  0  0  0  0  0  0  0  0
   -8.6909   -8.0912  -23.5362 C   0  0  0  0  0  0  0  0  0  0  0  0
  -10.0492   -7.9254  -23.7535 C   0  0  0  0  0  0  0  0  0  0  0  0
  -10.4948   -6.6182  -23.8928 C   0  0  0  0  0  0  0  0  0  0  0  0
   -9.6688   -5.5717  -23.8409 N   0  0  0  0  0  0  0  0  0  0  0  0
  -11.5456   -6.3672  -24.0513 H   0  0  0  0  0  0  0  0  0  0  0  0
  -10.6960   -8.7893  -23.7441 H   0  0  0  0  0  0  0  0  0  0  0  0
   -8.2780   -9.0845  -23.3784 H   0  0  0  0  0  0  0  0  0  0  0  0
   -6.5041   -5.0588  -23.7648 H   0  0  0  0  0  0  0  0  0  0  0  0
   -7.1745   -2.9640  -24.6283 H   0  0  0  0  0  0  0  0  0  0  0  0
   -8.8463   -3.5817  -24.7111 H   0  0  0  0  0  0  0  0  0  0  0  0
   -8.9679   -3.3584  -22.2161 H   0  0  0  0  0  0  0  0  0  0  0  0
   -6.1398   -2.3025  -22.5448 H   0  0  0  0  0  0  0  0  0  0  0  0
   -6.8263   -3.3350  -21.2893 H   0  0  0  0  0  0  0  0  0  0  0  0
  -10.9264   -3.2536  -22.2787 H   0  0  0  0  0  0  0  0  0  0  0  0
  -14.3399   -0.9335  -23.4312 H   0  0  0  0  0  0  0  0  0  0  0  0
  -12.8118    0.8572  -24.3123 H   0  0  0  0  0  0  0  0  0  0  0  0
  1  2  2  0
  2  3  1  0
  3  4  2  0
  4  5  1  0
  5  6  2  0
  6  7  1  0
  6  8  1  0
  8  9  2  0
  9 10  1  0
 10 11  1  6
 11 12  1  0
 12 13  1  0
 13 14  1  0
 14 15  1  0
 15 16  1  0
 16 17  1  0
 17 18  1  0
 18 19  1  0
 19 20  1  0
 20 21  1  0
 20 22  1  0
 19 23  1  0
 19 24  1  0
 17 25  1  0
 17 26  1  0
 16 27  1  0
 16 28  1  0
 15 29  1  0
 14 30  1  0
 14 31  1  0
 13 32  1  0
 13 33  1  0
 11 34  1  0
 11 35  1  0
 10 36  1  0
 36 37  2  0
 36 38  1  0
 38 39  1  0
 39 40  2  0
 40 41  1  0
 41 42  2  0
 42 43  1  0
 43 44  2  0
 44 45  1  0
 45 46  2  0
 46 47  1  0
 47 48  2  0
 47 49  1  0
 46 50  1  0
 45 51  1  0
 44 52  1  0
 42 53  1  0
 40 54  1  0
 38 55  1  0
 55 56  1  0
 56 57  1  0
 57 58  1  0
 58 59  1  0
 59 60  2  0
 60 61  1  0
 61 62  2  0
 62 63  1  0
 63 64  2  0
 63 65  1  0
 62 66  1  0
 61 67  1  0
 58 68  1  0
 57 69  1  0
 57 70  1  0
 56 71  1  1
 55 72  1  0
 55 73  1  0
  8 74  1  0
  5 75  1  0
  4 76  1  0
 12  2  1  0
 20 15  1  0
 48 39  1  0
 64 59  1  0
  9  3  1  0
 56 10  1  0
 48 43  1  0
M  CHG  1  15   1
M  END
>  <cnnaffinities>  (13) 
[6.98019]

>  <score>  (13) 
6.98019

>  <index>  (13) 
12

>  <Smiles>  (13) 
O=C1c2c(c(c(Cl)c(c2[C@@]2(C(N1C(C([N+]1(C(C(OC(C1([H])[H])([H])[H])([H])[H])([H])[H])[H])([H])[H])([H])[H])([H])[H])C(=O)N(c1c(nc(c3c(c(c(c(c13)[H])[H])[H])[H])[H])[H])C([C@@]2(C(N(c1nc(c(c(n1)[H])[H])[H])[H])([H])[H])[H])([H])[H])[H])[H])[H]

>  <h>  (13) 
<NA>

>  <Training>  (13) 
True

>  <Success>  (13) 
True

>  <enamine_searched>  (13) 
False

>  <enamine_id>  (13) 
nan

$$$$

     RDKit          3D

 69 74  0  0  0  0  0  0  0  0999 V2000
   -7.2649    3.4599  -22.0928 C   0  0  0  0  0  0  0  0  0  0  0  0
   -8.2785    2.8518  -22.9363 N   0  0  0  0  0  0  0  0  0  0  0  0
   -7.9147    2.1547  -24.0433 C   0  0  0  0  0  0  0  0  0  0  0  0
   -6.7429    1.9697  -24.3480 O   0  0  0  0  0  0  0  0  0  0  0  0
   -9.0585    1.6176  -24.9090 C   0  0  0  0  0  0  0  0  0  0  0  0
   -9.6757    0.4322  -24.3280 N   0  0  0  0  0  0  0  0  0  0  0  0
   -8.8764   -0.7716  -24.1457 C   0  0  0  0  0  0  0  0  0  0  0  0
   -9.2284   -1.5571  -22.8441 C   0  0  2  0  0  0  0  0  0  0  0  0
   -8.7039   -0.7464  -21.6175 C   0  0  0  0  0  0  0  0  0  0  0  0
   -9.2187    0.2324  -21.1173 O   0  0  0  0  0  0  0  0  0  0  0  0
   -7.5144   -1.3034  -21.2011 N   0  0  0  0  0  0  0  0  0  0  0  0
   -6.7202   -0.7388  -20.1690 C   0  0  0  0  0  0  0  0  0  0  0  0
   -7.0000   -1.0367  -18.8623 C   0  0  0  0  0  0  0  0  0  0  0  0
   -6.2707   -0.6055  -17.8048 N   0  0  0  0  0  0  0  0  0  0  0  0
   -5.2326    0.1562  -18.0545 C   0  0  0  0  0  0  0  0  0  0  0  0
   -4.8231    0.5414  -19.3614 C   0  0  0  0  0  0  0  0  0  0  0  0
   -3.6928    1.3732  -19.5844 C   0  0  0  0  0  0  0  0  0  0  0  0
   -3.3451    1.7481  -20.8540 C   0  0  0  0  0  0  0  0  0  0  0  0
   -4.1146    1.3163  -21.9566 C   0  0  0  0  0  0  0  0  0  0  0  0
   -5.2097    0.5064  -21.7675 C   0  0  0  0  0  0  0  0  0  0  0  0
   -5.5908    0.0895  -20.4629 C   0  0  0  0  0  0  0  0  0  0  0  0
   -5.8192    0.2297  -22.6220 H   0  0  0  0  0  0  0  0  0  0  0  0
   -3.8556    1.6339  -22.9626 H   0  0  0  0  0  0  0  0  0  0  0  0
   -2.4875    2.3927  -21.0208 H   0  0  0  0  0  0  0  0  0  0  0  0
   -3.1335    1.7216  -18.7209 H   0  0  0  0  0  0  0  0  0  0  0  0
   -4.6551    0.5113  -17.1992 H   0  0  0  0  0  0  0  0  0  0  0  0
   -7.8498   -1.6745  -18.6258 H   0  0  0  0  0  0  0  0  0  0  0  0
   -7.0841   -2.4378  -21.9868 C   0  0  0  0  0  0  0  0  0  0  0  0
   -8.3733   -2.8635  -22.7088 C   0  0  2  0  0  0  0  0  0  0  0  0
   -8.0581   -3.6606  -23.9770 C   0  0  0  0  0  0  0  0  0  0  0  0
   -9.2467   -4.2750  -24.5132 N   0  0  0  0  0  0  0  0  0  0  0  0
   -9.2312   -4.9664  -25.6866 C   0  0  0  0  0  0  0  0  0  0  0  0
  -10.3624   -5.6888  -26.1170 C   0  0  0  0  0  0  0  0  0  0  0  0
  -10.2708   -6.3071  -27.3425 C   0  0  0  0  0  0  0  0  0  0  0  0
   -9.1641   -6.2738  -28.0988 N   0  0  0  0  0  0  0  0  0  0  0  0
   -8.1284   -5.6120  -27.5800 C   0  0  0  0  0  0  0  0  0  0  0  0
   -6.8442   -5.6902  -28.3675 C   0  0  0  0  0  0  0  0  0  0  0  0
   -7.0620   -5.6190  -29.4376 H   0  0  0  0  0  0  0  0  0  0  0  0
   -6.3740   -6.6707  -28.2085 H   0  0  0  0  0  0  0  0  0  0  0  0
   -6.1412   -4.9084  -28.0667 H   0  0  0  0  0  0  0  0  0  0  0  0
   -8.1075   -4.9362  -26.4215 N   0  0  0  0  0  0  0  0  0  0  0  0
  -11.1094   -6.8751  -27.7577 H   0  0  0  0  0  0  0  0  0  0  0  0
  -11.2587   -5.7581  -25.5044 H   0  0  0  0  0  0  0  0  0  0  0  0
  -10.1158   -4.1888  -24.0064 H   0  0  0  0  0  0  0  0  0  0  0  0
   -7.3051   -4.4323  -23.7650 H   0  0  0  0  0  0  0  0  0  0  0  0
   -7.6043   -3.0296  -24.7537 H   0  0  0  0  0  0  0  0  0  0  0  0
   -8.9158   -3.5201  -22.0161 H   0  0  0  0  0  0  0  0  0  0  0  0
   -6.2726   -2.1739  -22.6884 H   0  0  0  0  0  0  0  0  0  0  0  0
   -6.6952   -3.2279  -21.3368 H   0  0  0  0  0  0  0  0  0  0  0  0
  -10.7499   -1.6943  -22.7606 C   0  0  0  0  0  0  0  0  0  0  0  0
  -11.3849   -2.5972  -21.8885 C   0  0  0  0  0  0  0  0  0  0  0  0
  -12.7463   -2.4760  -21.6317 C   0  0  0  0  0  0  0  0  0  0  0  0
  -13.5119   -3.3423  -20.3422 Cl  0  0  0  0  0  0  0  0  0  0  0  0
  -13.5645   -1.5767  -22.3076 C   0  0  0  0  0  0  0  0  0  0  0  0
  -12.9604   -0.7318  -23.2030 C   0  0  0  0  0  0  0  0  0  0  0  0
  -11.5778   -0.7385  -23.3783 C   0  0  0  0  0  0  0  0  0  0  0  0
  -11.0265    0.4196  -24.1564 C   0  0  0  0  0  0  0  0  0  0  0  0
  -11.7572    1.3072  -24.5876 O   0  0  0  0  0  0  0  0  0  0  0  0
  -13.5320    0.0202  -23.7283 H   0  0  0  0  0  0  0  0  0  0  0  0
  -14.6293   -1.5234  -22.0946 H   0  0  0  0  0  0  0  0  0  0  0  0
  -10.8435   -3.3802  -21.3677 H   0  0  0  0  0  0  0  0  0  0  0  0
   -7.8323   -0.4565  -24.1036 H   0  0  0  0  0  0  0  0  0  0  0  0
   -9.0012   -1.4267  -25.0184 H   0  0  0  0  0  0  0  0  0  0  0  0
   -8.6596    1.4174  -25.9111 H   0  0  0  0  0  0  0  0  0  0  0  0
   -9.8585    2.3573  -25.0118 H   0  0  0  0  0  0  0  0  0  0  0  0
   -9.2018    2.7037  -22.5495 H   0  0  0  0  0  0  0  0  0  0  0  0
   -6.7295    2.7087  -21.4959 H   0  0  0  0  0  0  0  0  0  0  0  0
   -6.5415    3.9743  -22.7312 H   0  0  0  0  0  0  0  0  0  0  0  0
   -7.7330    4.1950  -21.4348 H   0  0  0  0  0  0  0  0  0  0  0  0
  1  2  1  0
  2  3  1  0
  3  4  2  0
  3  5  1  0
  5  6  1  0
  6  7  1  0
  8  7  1  6
  8  9  1  0
  9 10  2  0
  9 11  1  0
 11 12  1  0
 12 13  2  0
 13 14  1  0
 14 15  2  0
 15 16  1  0
 16 17  2  0
 17 18  1  0
 18 19  2  0
 19 20  1  0
 20 21  2  0
 20 22  1  0
 19 23  1  0
 18 24  1  0
 17 25  1  0
 15 26  1  0
 13 27  1  0
 11 28  1  0
 28 29  1  0
 29 30  1  0
 30 31  1  0
 31 32  1  0
 32 33  2  0
 33 34  1  0
 34 35  2  0
 35 36  1  0
 36 37  1  0
 37 38  1  0
 37 39  1  0
 37 40  1  0
 36 41  2  0
 34 42  1  0
 33 43  1  0
 31 44  1  0
 30 45  1  0
 30 46  1  0
 29 47  1  1
 28 48  1  0
 28 49  1  0
  8 50  1  0
 50 51  2  0
 51 52  1  0
 52 53  1  0
 52 54  2  0
 54 55  1  0
 55 56  2  0
 56 57  1  0
 57 58  2  0
 55 59  1  0
 54 60  1  0
 51 61  1  0
  7 62  1  0
  7 63  1  0
  5 64  1  0
  5 65  1  0
  2 66  1  0
  1 67  1  0
  1 68  1  0
  1 69  1  0
 57  6  1  0
 29  8  1  0
 41 32  1  0
 56 50  1  0
 21 12  1  0
 21 16  1  0
M  END
>  <cnnaffinities>  (14) 
[6.5374]

>  <score>  (14) 
6.5374

>  <index>  (14) 
13

>  <Smiles>  (14) 
C(N(C(=O)C(N1C([C@@]2(C(=O)N(c3c(nc(c4c(c(c(c(c34)[H])[H])[H])[H])[H])[H])C([C@@]2(C(N(c2c(c(nc(C([H])([H])[H])n2)[H])[H])[H])([H])[H])[H])([H])[H])c2c(c(Cl)c(c(c2C1=O)[H])[H])[H])([H])[H])([H])[H])[H])([H])([H])[H]

>  <h>  (14) 
<NA>

>  <Training>  (14) 
True

>  <Success>  (14) 
True

>  <enamine_searched>  (14) 
False

>  <enamine_id>  (14) 
nan

$$$$

     RDKit          3D

 73 78  0  0  0  0  0  0  0  0999 V2000
   -7.9440   -3.7505  -24.0044 C   0  0  0  0  0  0  0  0  0  0  0  0
   -8.2967   -2.8746  -22.7985 C   0  0  1  0  0  0  0  0  0  0  0  0
   -7.0985   -2.6529  -21.8498 C   0  0  0  0  0  0  0  0  0  0  0  0
   -7.4069   -1.3925  -21.1984 N   0  0  0  0  0  0  0  0  0  0  0  0
   -6.6071   -0.8105  -20.1752 C   0  0  0  0  0  0  0  0  0  0  0  0
   -6.9005   -1.0549  -18.8588 C   0  0  0  0  0  0  0  0  0  0  0  0
   -6.1964   -0.5625  -17.8102 N   0  0  0  0  0  0  0  0  0  0  0  0
   -5.1690    0.2078  -18.0763 C   0  0  0  0  0  0  0  0  0  0  0  0
   -4.7445    0.5479  -19.3943 C   0  0  0  0  0  0  0  0  0  0  0  0
   -3.6165    1.3830  -19.6340 C   0  0  0  0  0  0  0  0  0  0  0  0
   -3.2364    1.6908  -20.9126 C   0  0  0  0  0  0  0  0  0  0  0  0
   -3.9728    1.1871  -22.0053 C   0  0  0  0  0  0  0  0  0  0  0  0
   -5.0613    0.3710  -21.7971 C   0  0  0  0  0  0  0  0  0  0  0  0
   -5.4861    0.0294  -20.4824 C   0  0  0  0  0  0  0  0  0  0  0  0
   -5.5679   -0.0661  -22.6511 H   0  0  0  0  0  0  0  0  0  0  0  0
   -3.6576    1.4072  -23.0223 H   0  0  0  0  0  0  0  0  0  0  0  0
   -2.3669    2.3160  -21.0934 H   0  0  0  0  0  0  0  0  0  0  0  0
   -3.0731    1.7726  -18.7781 H   0  0  0  0  0  0  0  0  0  0  0  0
   -4.6194    0.6137  -17.2265 H   0  0  0  0  0  0  0  0  0  0  0  0
   -7.7540   -1.6781  -18.6009 H   0  0  0  0  0  0  0  0  0  0  0  0
   -8.3895   -0.6649  -21.8316 C   0  0  0  0  0  0  0  0  0  0  0  0
   -8.8078    0.4025  -21.4336 O   0  0  0  0  0  0  0  0  0  0  0  0
   -8.8391   -1.4419  -23.1008 C   0  0  1  0  0  0  0  0  0  0  0  0
   -8.1553   -0.8395  -24.3615 C   0  0  0  0  0  0  0  0  0  0  0  0
   -8.6037    0.5105  -24.6342 N   0  0  0  0  0  0  0  0  0  0  0  0
   -7.6416    1.5728  -24.8919 C   0  0  0  0  0  0  0  0  0  0  0  0
   -7.5157    2.5182  -23.6941 C   0  0  0  0  0  0  0  0  0  0  0  0
   -6.4236    3.5550  -23.8578 N   0  0  0  0  0  4  0  0  0  0  0  0
   -6.7545    4.6757  -24.8359 C   0  0  0  0  0  0  0  0  0  0  0  0
   -7.7583    5.6762  -24.2563 C   0  0  0  0  0  0  0  0  0  0  0  0
   -7.3542    6.1566  -22.9356 N   0  0  0  0  0  0  0  0  0  0  0  0
   -6.5501    7.6003  -22.8288 S   0  0  0  0  0  0  0  0  0  0  0  0
   -6.0426    7.6897  -21.4745 O   0  0  0  0  0  0  0  0  0  0  0  0
   -7.4127    8.6198  -23.3973 O   0  0  0  0  0  0  0  0  0  0  0  0
   -5.1443    7.5240  -23.9308 C   0  0  0  0  0  0  0  0  0  0  0  0
   -5.5137    7.4988  -24.9613 H   0  0  0  0  0  0  0  0  0  0  0  0
   -4.5137    6.6660  -23.6882 H   0  0  0  0  0  0  0  0  0  0  0  0
   -4.6075    8.4627  -23.7574 H   0  0  0  0  0  0  0  0  0  0  0  0
   -7.0448    5.0948  -21.9742 C   0  0  0  0  0  0  0  0  0  0  0  0
   -5.9870    4.1508  -22.5323 C   0  0  0  0  0  0  0  0  0  0  0  0
   -5.0582    4.7003  -22.7081 H   0  0  0  0  0  0  0  0  0  0  0  0
   -5.7786    3.3323  -21.8386 H   0  0  0  0  0  0  0  0  0  0  0  0
   -7.9800    4.5546  -21.7925 H   0  0  0  0  0  0  0  0  0  0  0  0
   -6.7223    5.5577  -21.0429 H   0  0  0  0  0  0  0  0  0  0  0  0
   -8.7354    5.2016  -24.1270 H   0  0  0  0  0  0  0  0  0  0  0  0
   -7.8927    6.5371  -24.9150 H   0  0  0  0  0  0  0  0  0  0  0  0
   -7.1514    4.2430  -25.7531 H   0  0  0  0  0  0  0  0  0  0  0  0
   -5.8172    5.1821  -25.0794 H   0  0  0  0  0  0  0  0  0  0  0  0
   -5.5929    3.0500  -24.2199 H   0  0  0  0  0  0  0  0  0  0  0  0
   -7.2865    1.9427  -22.7929 H   0  0  0  0  0  0  0  0  0  0  0  0
   -8.4731    3.0192  -23.5389 H   0  0  0  0  0  0  0  0  0  0  0  0
   -6.6710    1.1070  -25.0981 H   0  0  0  0  0  0  0  0  0  0  0  0
   -7.9619    2.1154  -25.7852 H   0  0  0  0  0  0  0  0  0  0  0  0
   -9.9314    0.8197  -24.6212 C   0  0  0  0  0  0  0  0  0  0  0  0
  -10.3713    1.9005  -25.0005 O   0  0  0  0  0  0  0  0  0  0  0  0
  -10.8477   -0.2306  -24.0493 C   0  0  0  0  0  0  0  0  0  0  0  0
  -12.2232   -0.0526  -24.2014 C   0  0  0  0  0  0  0  0  0  0  0  0
  -13.1134   -0.9019  -23.5739 C   0  0  0  0  0  0  0  0  0  0  0  0
  -12.6104   -1.9189  -22.7641 C   0  0  0  0  0  0  0  0  0  0  0  0
  -13.7291   -2.9460  -21.9153 Cl  0  0  0  0  0  0  0  0  0  0  0  0
  -11.2499   -2.1184  -22.6091 C   0  0  0  0  0  0  0  0  0  0  0  0
  -10.3410   -1.2981  -23.2907 C   0  0  0  0  0  0  0  0  0  0  0  0
  -10.9161   -2.8942  -21.9280 H   0  0  0  0  0  0  0  0  0  0  0  0
  -14.1847   -0.7688  -23.6745 H   0  0  0  0  0  0  0  0  0  0  0  0
  -12.5617    0.7849  -24.8029 H   0  0  0  0  0  0  0  0  0  0  0  0
   -8.3794   -1.4936  -25.2188 H   0  0  0  0  0  0  0  0  0  0  0  0
   -7.0698   -0.8162  -24.2120 H   0  0  0  0  0  0  0  0  0  0  0  0
   -6.1523   -2.5997  -22.4127 H   0  0  0  0  0  0  0  0  0  0  0  0
   -6.9925   -3.4523  -21.1088 H   0  0  0  0  0  0  0  0  0  0  0  0
   -9.0725   -3.3802  -22.2172 H   0  0  0  0  0  0  0  0  0  0  0  0
   -7.0907   -3.3390  -24.5571 H   0  0  0  0  0  0  0  0  0  0  0  0
   -7.6639   -4.7601  -23.6853 H   0  0  0  0  0  0  0  0  0  0  0  0
   -8.7820   -3.8418  -24.7044 H   0  0  0  0  0  0  0  0  0  0  0  0
  1  2  1  0
  2  3  1  0
  3  4  1  0
  4  5  1  0
  5  6  2  0
  6  7  1  0
  7  8  2  0
  8  9  1  0
  9 10  2  0
 10 11  1  0
 11 12  2  0
 12 13  1  0
 13 14  2  0
 13 15  1  0
 12 16  1  0
 11 17  1  0
 10 18  1  0
  8 19  1  0
  6 20  1  0
  4 21  1  0
 21 22  2  0
 21 23  1  0
 23 24  1  6
 24 25  1  0
 25 26  1  0
 26 27  1  0
 27 28  1  0
 28 29  1  0
 29 30  1  0
 30 31  1  0
 31 32  1  0
 32 33  2  0
 32 34  2  0
 32 35  1  0
 35 36  1  0
 35 37  1  0
 35 38  1  0
 31 39  1  0
 39 40  1  0
 40 41  1  0
 40 42  1  0
 39 43  1  0
 39 44  1  0
 30 45  1  0
 30 46  1  0
 29 47  1  0
 29 48  1  0
 28 49  1  0
 27 50  1  0
 27 51  1  0
 26 52  1  0
 26 53  1  0
 25 54  1  0
 54 55  2  0
 54 56  1  0
 56 57  2  0
 57 58  1  0
 58 59  2  0
 59 60  1  0
 59 61  1  0
 61 62  2  0
 61 63  1  0
 58 64  1  0
 57 65  1  0
 24 66  1  0
 24 67  1  0
  3 68  1  0
  3 69  1  0
  2 70  1  1
  1 71  1  0
  1 72  1  0
  1 73  1  0
 23  2  1  0
 40 28  1  0
 62 56  1  0
 14  5  1  0
 62 23  1  0
 14  9  1  0
M  CHG  1  28   1
M  END
>  <cnnaffinities>  (15) 
[6.51172, 6.23125]

>  <score>  (15) 
6.51172

>  <index>  (15) 
14

>  <Smiles>  (15) 
C([C@]1(C(N(c2c(nc(c3c(c(c(c(c23)[H])[H])[H])[H])[H])[H])C(=O)[C@]21C(N(C(C([N+]1(C(C(N(S(=O)(=O)C([H])([H])[H])C(C1([H])[H])([H])[H])([H])[H])([H])[H])[H])([H])[H])([H])[H])C(=O)c1c(c(c(Cl)c(c21)[H])[H])[H])([H])[H])([H])[H])[H])([H])([H])[H]

>  <h>  (15) 
<NA>

>  <Training>  (15) 
True

>  <Success>  (15) 
True

>  <enamine_searched>  (15) 
False

>  <enamine_id>  (15) 
nan

$$$$

     RDKit          3D

 63 68  0  0  0  0  0  0  0  0999 V2000
   -7.0591    3.4004  -22.4476 C   0  0  0  0  0  0  0  0  0  0  0  0
   -8.0993    2.6442  -23.1072 N   0  0  0  0  0  0  0  0  0  0  0  0
   -7.8738    1.9543  -24.2500 C   0  0  0  0  0  0  0  0  0  0  0  0
   -6.7643    1.7611  -24.7291 O   0  0  0  0  0  0  0  0  0  0  0  0
   -9.1371    1.4803  -24.9496 C   0  0  0  0  0  0  0  0  0  0  0  0
   -9.7324    0.3094  -24.3372 N   0  0  0  0  0  0  0  0  0  0  0  0
   -8.9375   -0.8935  -24.1609 C   0  0  0  0  0  0  0  0  0  0  0  0
   -9.2718   -1.5982  -22.8170 C   0  0  2  0  0  0  0  0  0  0  0  0
   -8.7374   -0.7124  -21.6452 C   0  0  0  0  0  0  0  0  0  0  0  0
   -9.2590    0.2751  -21.1795 O   0  0  0  0  0  0  0  0  0  0  0  0
   -7.5347   -1.2431  -21.2261 N   0  0  0  0  0  0  0  0  0  0  0  0
   -6.7602   -0.6834  -20.1753 C   0  0  0  0  0  0  0  0  0  0  0  0
   -7.0258   -1.0223  -18.8732 C   0  0  0  0  0  0  0  0  0  0  0  0
   -6.2886   -0.6191  -17.8087 N   0  0  0  0  0  0  0  0  0  0  0  0
   -5.2500    0.1477  -18.0387 C   0  0  0  0  0  0  0  0  0  0  0  0
   -4.8539    0.5730  -19.3404 C   0  0  0  0  0  0  0  0  0  0  0  0
   -3.7148    1.3976  -19.5568 C   0  0  0  0  0  0  0  0  0  0  0  0
   -3.3809    1.8026  -20.8204 C   0  0  0  0  0  0  0  0  0  0  0  0
   -4.1745    1.4165  -21.9236 C   0  0  0  0  0  0  0  0  0  0  0  0
   -5.2839    0.6234  -21.7438 C   0  0  0  0  0  0  0  0  0  0  0  0
   -5.6424    0.1655  -20.4460 C   0  0  0  0  0  0  0  0  0  0  0  0
   -5.9179    0.3943  -22.5976 H   0  0  0  0  0  0  0  0  0  0  0  0
   -3.9238    1.7604  -22.9226 H   0  0  0  0  0  0  0  0  0  0  0  0
   -2.5114    2.4347  -20.9798 H   0  0  0  0  0  0  0  0  0  0  0  0
   -3.1210    1.7011  -18.6983 H   0  0  0  0  0  0  0  0  0  0  0  0
   -4.6634    0.4738  -17.1750 H   0  0  0  0  0  0  0  0  0  0  0  0
   -7.8733   -1.6665  -18.6480 H   0  0  0  0  0  0  0  0  0  0  0  0
   -7.0949   -2.3683  -22.0238 C   0  0  0  0  0  0  0  0  0  0  0  0
   -8.4111   -2.8902  -22.6233 C   0  0  2  0  0  0  0  0  0  0  0  0
   -8.1951   -3.7563  -23.8772 C   0  0  0  0  0  0  0  0  0  0  0  0
   -7.4579   -4.9800  -23.6160 N   0  0  0  0  0  0  0  0  0  0  0  0
   -6.1224   -5.1693  -23.7202 C   0  0  0  0  0  0  0  0  0  0  0  0
   -5.8738   -6.4836  -23.3974 C   0  0  0  0  0  0  0  0  0  0  0  0
   -7.1504   -7.0063  -23.1008 C   0  0  0  0  0  0  0  0  0  0  0  0
   -8.0994   -6.0886  -23.2315 N   0  0  0  0  0  0  0  0  0  0  0  0
   -7.4238   -8.0098  -22.7917 H   0  0  0  0  0  0  0  0  0  0  0  0
   -4.9205   -6.9960  -23.3896 H   0  0  0  0  0  0  0  0  0  0  0  0
   -5.4660   -4.3564  -24.0043 H   0  0  0  0  0  0  0  0  0  0  0  0
   -7.6199   -3.1936  -24.6212 H   0  0  0  0  0  0  0  0  0  0  0  0
   -9.1548   -4.0536  -24.3115 H   0  0  0  0  0  0  0  0  0  0  0  0
   -8.8873   -3.5133  -21.8609 H   0  0  0  0  0  0  0  0  0  0  0  0
   -6.5771   -3.1048  -21.4071 H   0  0  0  0  0  0  0  0  0  0  0  0
   -6.3991   -2.0467  -22.8179 H   0  0  0  0  0  0  0  0  0  0  0  0
  -10.7929   -1.7418  -22.7380 C   0  0  0  0  0  0  0  0  0  0  0  0
  -11.4036   -2.6328  -21.8425 C   0  0  0  0  0  0  0  0  0  0  0  0
  -12.7646   -2.5445  -21.5944 C   0  0  0  0  0  0  0  0  0  0  0  0
  -13.5211   -3.3807  -20.2777 Cl  0  0  0  0  0  0  0  0  0  0  0  0
  -13.5925   -1.6862  -22.3087 C   0  0  0  0  0  0  0  0  0  0  0  0
  -13.0266   -0.8508  -23.2416 C   0  0  0  0  0  0  0  0  0  0  0  0
  -11.6401   -0.8383  -23.4058 C   0  0  0  0  0  0  0  0  0  0  0  0
  -11.0934    0.2751  -24.2352 C   0  0  0  0  0  0  0  0  0  0  0  0
  -11.8263    1.1105  -24.7484 O   0  0  0  0  0  0  0  0  0  0  0  0
  -13.6282   -0.1458  -23.8097 H   0  0  0  0  0  0  0  0  0  0  0  0
  -14.6503   -1.6786  -22.0772 H   0  0  0  0  0  0  0  0  0  0  0  0
  -10.8301   -3.3931  -21.3280 H   0  0  0  0  0  0  0  0  0  0  0  0
   -7.8871   -0.5904  -24.1932 H   0  0  0  0  0  0  0  0  0  0  0  0
   -9.1177   -1.5971  -24.9868 H   0  0  0  0  0  0  0  0  0  0  0  0
   -9.9035    2.2603  -24.8959 H   0  0  0  0  0  0  0  0  0  0  0  0
   -8.8632    1.3104  -25.9950 H   0  0  0  0  0  0  0  0  0  0  0  0
   -9.0088    2.5581  -22.6770 H   0  0  0  0  0  0  0  0  0  0  0  0
   -7.4187    4.3881  -22.1491 H   0  0  0  0  0  0  0  0  0  0  0  0
   -6.2249    3.5255  -23.1398 H   0  0  0  0  0  0  0  0  0  0  0  0
   -6.6865    2.8603  -21.5765 H   0  0  0  0  0  0  0  0  0  0  0  0
  1  2  1  0
  2  3  1  0
  3  4  2  0
  3  5  1  0
  5  6  1  0
  6  7  1  0
  8  7  1  6
  8  9  1  0
  9 10  2  0
  9 11  1  0
 11 12  1  0
 12 13  2  0
 13 14  1  0
 14 15  2  0
 15 16  1  0
 16 17  2  0
 17 18  1  0
 18 19  2  0
 19 20  1  0
 20 21  2  0
 20 22  1  0
 19 23  1  0
 18 24  1  0
 17 25  1  0
 15 26  1  0
 13 27  1  0
 11 28  1  0
 28 29  1  0
 29 30  1  0
 30 31  1  0
 31 32  1  0
 32 33  2  0
 33 34  1  0
 34 35  2  0
 34 36  1  0
 33 37  1  0
 32 38  1  0
 30 39  1  0
 30 40  1  0
 29 41  1  1
 28 42  1  0
 28 43  1  0
  8 44  1  0
 44 45  2  0
 45 46  1  0
 46 47  1  0
 46 48  2  0
 48 49  1  0
 49 50  2  0
 50 51  1  0
 51 52  2  0
 49 53  1  0
 48 54  1  0
 45 55  1  0
  7 56  1  0
  7 57  1  0
  5 58  1  0
  5 59  1  0
  2 60  1  0
  1 61  1  0
  1 62  1  0
  1 63  1  0
 51  6  1  0
 29  8  1  0
 35 31  1  0
 50 44  1  0
 21 12  1  0
 21 16  1  0
M  END
>  <cnnaffinities>  (16) 
[7.02123, 6.77237, 6.73025]

>  <score>  (16) 
7.02123

>  <index>  (16) 
15

>  <Smiles>  (16) 
C(N(C(=O)C(N1C([C@@]2(C(=O)N(c3c(nc(c4c(c(c(c(c34)[H])[H])[H])[H])[H])[H])C([C@@]2(C(n2c(c(c(n2)[H])[H])[H])([H])[H])[H])([H])[H])c2c(c(Cl)c(c(c2C1=O)[H])[H])[H])([H])[H])([H])[H])[H])([H])([H])[H]

>  <h>  (16) 
<NA>

>  <Training>  (16) 
True

>  <Success>  (16) 
True

>  <enamine_searched>  (16) 
False

>  <enamine_id>  (16) 
nan

$$$$

     RDKit          3D

 61 66  0  0  0  0  0  0  0  0999 V2000
   -6.8597    3.4078  -23.2566 C   0  0  0  0  0  0  0  0  0  0  0  0
   -7.5694    2.6158  -24.2368 N   0  0  0  0  0  0  0  0  0  0  0  0
   -6.9584    1.5826  -24.8471 C   0  0  0  0  0  0  0  0  0  0  0  0
   -5.7641    1.3290  -24.7241 O   0  0  0  0  0  0  0  0  0  0  0  0
   -7.8961    0.7196  -25.7044 C   0  0  0  0  0  0  0  0  0  0  0  0
   -8.8823    0.0375  -24.8712 N   0  0  0  0  0  0  0  0  0  0  0  0
   -8.5605   -1.2828  -24.3395 C   0  0  0  0  0  0  0  0  0  0  0  0
   -9.0974   -1.4681  -22.8883 C   0  0  2  0  0  0  0  0  0  0  0  0
   -8.3136   -0.5227  -21.9396 C   0  0  0  0  0  0  0  0  0  0  0  0
   -8.4253    0.6829  -21.8283 O   0  0  0  0  0  0  0  0  0  0  0  0
   -7.4469   -1.2869  -21.1994 N   0  0  0  0  0  0  0  0  0  0  0  0
   -6.6364   -0.7493  -20.1804 C   0  0  0  0  0  0  0  0  0  0  0  0
   -6.9093   -1.0611  -18.8736 C   0  0  0  0  0  0  0  0  0  0  0  0
   -6.2163   -0.5904  -17.8134 N   0  0  0  0  0  0  0  0  0  0  0  0
   -5.1974    0.1962  -18.0686 C   0  0  0  0  0  0  0  0  0  0  0  0
   -4.7805    0.5610  -19.3798 C   0  0  0  0  0  0  0  0  0  0  0  0
   -3.6451    1.3847  -19.5990 C   0  0  0  0  0  0  0  0  0  0  0  0
   -3.2638    1.7188  -20.8695 C   0  0  0  0  0  0  0  0  0  0  0  0
   -4.0027    1.2528  -21.9791 C   0  0  0  0  0  0  0  0  0  0  0  0
   -5.0942    0.4396  -21.7957 C   0  0  0  0  0  0  0  0  0  0  0  0
   -5.5189    0.0822  -20.4846 C   0  0  0  0  0  0  0  0  0  0  0  0
   -5.6248    0.0743  -22.6701 H   0  0  0  0  0  0  0  0  0  0  0  0
   -3.7134    1.5253  -22.9902 H   0  0  0  0  0  0  0  0  0  0  0  0
   -2.3896    2.3408  -21.0338 H   0  0  0  0  0  0  0  0  0  0  0  0
   -3.0956    1.7411  -18.7334 H   0  0  0  0  0  0  0  0  0  0  0  0
   -4.6380    0.5810  -17.2161 H   0  0  0  0  0  0  0  0  0  0  0  0
   -7.7502   -1.7158  -18.6463 H   0  0  0  0  0  0  0  0  0  0  0  0
   -7.4446   -2.6867  -21.5345 C   0  0  0  0  0  0  0  0  0  0  0  0
   -8.7423   -2.8720  -22.3229 C   0  0  2  0  0  0  0  0  0  0  0  0
   -8.6188   -3.9996  -23.3563 C   0  0  0  0  0  0  0  0  0  0  0  0
   -8.3718   -5.2887  -22.7312 N   0  0  0  0  0  0  0  0  0  0  0  0
   -7.1629   -5.7655  -22.4797 N   0  0  0  0  0  0  0  0  0  0  0  0
   -7.4571   -6.9223  -21.9028 C   0  0  0  0  0  0  0  0  0  0  0  0
   -8.7835   -7.1237  -21.8021 N   0  0  0  0  0  0  0  0  0  0  0  0
   -9.3460   -6.0737  -22.3329 N   0  0  0  0  0  0  0  0  0  0  0  0
   -6.7264   -7.6391  -21.5596 H   0  0  0  0  0  0  0  0  0  0  0  0
   -9.5287   -4.0892  -23.9570 H   0  0  0  0  0  0  0  0  0  0  0  0
   -7.7676   -3.8182  -24.0133 H   0  0  0  0  0  0  0  0  0  0  0  0
   -9.5170   -3.1698  -21.6150 H   0  0  0  0  0  0  0  0  0  0  0  0
   -7.4275   -3.2856  -20.6285 H   0  0  0  0  0  0  0  0  0  0  0  0
   -6.5646   -2.9658  -22.1314 H   0  0  0  0  0  0  0  0  0  0  0  0
  -10.5752   -1.1243  -22.9036 C   0  0  0  0  0  0  0  0  0  0  0  0
  -11.5136   -1.7336  -22.0711 C   0  0  0  0  0  0  0  0  0  0  0  0
  -12.8504   -1.4027  -22.1812 C   0  0  0  0  0  0  0  0  0  0  0  0
  -14.0177   -2.2466  -21.2092 Cl  0  0  0  0  0  0  0  0  0  0  0  0
  -13.2994   -0.4213  -23.0593 C   0  0  0  0  0  0  0  0  0  0  0  0
  -12.3692    0.2519  -23.8207 C   0  0  0  0  0  0  0  0  0  0  0  0
  -11.0225   -0.0947  -23.7398 C   0  0  0  0  0  0  0  0  0  0  0  0
  -10.0288    0.6886  -24.5307 C   0  0  0  0  0  0  0  0  0  0  0  0
  -10.2495    1.8533  -24.8638 O   0  0  0  0  0  0  0  0  0  0  0  0
  -12.6712    1.0364  -24.5058 H   0  0  0  0  0  0  0  0  0  0  0  0
  -14.3579   -0.2118  -23.1464 H   0  0  0  0  0  0  0  0  0  0  0  0
  -11.2131   -2.4686  -21.3390 H   0  0  0  0  0  0  0  0  0  0  0  0
   -9.0043   -2.0509  -24.9867 H   0  0  0  0  0  0  0  0  0  0  0  0
   -7.4702   -1.4173  -24.3480 H   0  0  0  0  0  0  0  0  0  0  0  0
   -7.3066   -0.0122  -26.2608 H   0  0  0  0  0  0  0  0  0  0  0  0
   -8.4104    1.3308  -26.4510 H   0  0  0  0  0  0  0  0  0  0  0  0
   -8.5783    2.6969  -24.3325 H   0  0  0  0  0  0  0  0  0  0  0  0
   -7.5493    4.1442  -22.8372 H   0  0  0  0  0  0  0  0  0  0  0  0
   -6.4793    2.7709  -22.4431 H   0  0  0  0  0  0  0  0  0  0  0  0
   -6.0200    3.9224  -23.7366 H   0  0  0  0  0  0  0  0  0  0  0  0
  1  2  1  0
  2  3  1  0
  3  4  2  0
  3  5  1  0
  5  6  1  0
  6  7  1  0
  8  7  1  6
  8  9  1  0
  9 10  2  0
  9 11  1  0
 11 12  1  0
 12 13  2  0
 13 14  1  0
 14 15  2  0
 15 16  1  0
 16 17  2  0
 17 18  1  0
 18 19  2  0
 19 20  1  0
 20 21  2  0
 20 22  1  0
 19 23  1  0
 18 24  1  0
 17 25  1  0
 15 26  1  0
 13 27  1  0
 11 28  1  0
 28 29  1  0
 29 30  1  0
 30 31  1  0
 31 32  1  0
 32 33  2  0
 33 34  1  0
 34 35  2  0
 33 36  1  0
 30 37  1  0
 30 38  1  0
 29 39  1  1
 28 40  1  0
 28 41  1  0
  8 42  1  0
 42 43  2  0
 43 44  1  0
 44 45  1  0
 44 46  2  0
 46 47  1  0
 47 48  2  0
 48 49  1  0
 49 50  2  0
 47 51  1  0
 46 52  1  0
 43 53  1  0
  7 54  1  0
  7 55  1  0
  5 56  1  0
  5 57  1  0
  2 58  1  0
  1 59  1  0
  1 60  1  0
  1 61  1  0
 49  6  1  0
 29  8  1  0
 35 31  1  0
 48 42  1  0
 21 12  1  0
 21 16  1  0
M  END
>  <cnnaffinities>  (17) 
[6.47534]

>  <score>  (17) 
6.47534

>  <index>  (17) 
16

>  <Smiles>  (17) 
C(N(C(=O)C(N1C([C@@]2(C(=O)N(c3c(nc(c4c(c(c(c(c34)[H])[H])[H])[H])[H])[H])C([C@@]2(C(n2nc(nn2)[H])([H])[H])[H])([H])[H])c2c(c(Cl)c(c(c2C1=O)[H])[H])[H])([H])[H])([H])[H])[H])([H])([H])[H]

>  <h>  (17) 
<NA>

>  <Training>  (17) 
True

>  <Success>  (17) 
True

>  <enamine_searched>  (17) 
False

>  <enamine_id>  (17) 
nan

$$$$

     RDKit          3D

 38 41  0  0  0  0  0  0  0  0999 V2000
  -10.0936   -5.0130  -24.3151 C   0  0  0  0  0  0  0  0  0  0  0  0
   -9.8094   -3.7202  -23.5581 C   0  0  2  0  0  0  0  0  0  0  0  0
   -9.5578   -2.4921  -24.4307 C   0  0  0  0  0  0  0  0  0  0  0  0
   -9.5906   -1.2400  -23.5504 C   0  0  0  0  0  0  0  0  0  0  0  0
   -8.6694   -1.4488  -22.4392 C   0  0  0  0  0  0  0  0  0  0  0  0
   -8.1786   -0.5386  -21.4502 C   0  0  0  0  0  0  0  0  0  0  0  0
   -8.5775    0.5351  -21.0636 O   0  0  0  0  0  1  0  0  0  0  0  0
   -7.0529   -1.2207  -20.9238 N   0  0  0  0  0  0  0  0  0  0  0  0
   -6.2560   -0.7106  -19.8908 C   0  0  0  0  0  0  0  0  0  0  0  0
   -6.5424   -1.0293  -18.5932 C   0  0  0  0  0  0  0  0  0  0  0  0
   -5.8919   -0.5072  -17.5299 N   0  0  0  0  0  0  0  0  0  0  0  0
   -4.9206    0.3424  -17.7773 C   0  0  0  0  0  0  0  0  0  0  0  0
   -4.5035    0.7303  -19.0897 C   0  0  0  0  0  0  0  0  0  0  0  0
   -3.4279    1.6305  -19.3293 C   0  0  0  0  0  0  0  0  0  0  0  0
   -3.1146    1.9941  -20.6116 C   0  0  0  0  0  0  0  0  0  0  0  0
   -3.8406    1.4852  -21.7127 C   0  0  0  0  0  0  0  0  0  0  0  0
   -4.8692    0.5971  -21.5136 C   0  0  0  0  0  0  0  0  0  0  0  0
   -5.2044    0.1970  -20.1911 C   0  0  0  0  0  0  0  0  0  0  0  0
   -5.4171    0.1920  -22.3593 H   0  0  0  0  0  0  0  0  0  0  0  0
   -3.5911    1.8085  -22.7185 H   0  0  0  0  0  0  0  0  0  0  0  0
   -2.3110    2.7021  -20.7945 H   0  0  0  0  0  0  0  0  0  0  0  0
   -2.8744    2.0330  -18.4841 H   0  0  0  0  0  0  0  0  0  0  0  0
   -4.4340    0.7824  -16.9079 H   0  0  0  0  0  0  0  0  0  0  0  0
   -7.3570   -1.7143  -18.3782 H   0  0  0  0  0  0  0  0  0  0  0  0
   -7.0316   -2.5535  -21.3292 C   0  0  0  0  0  0  0  0  0  0  0  0
   -6.3046   -3.4389  -20.9530 O   0  0  0  0  0  0  0  0  0  0  0  0
   -8.0655   -2.6426  -22.2345 N   0  0  0  0  0  0  0  0  0  0  0  0
   -8.5681   -3.9252  -22.6909 C   0  0  0  0  0  0  0  0  0  0  0  0
   -8.7981   -4.5472  -21.8250 H   0  0  0  0  0  0  0  0  0  0  0  0
   -7.7941   -4.4333  -23.2751 H   0  0  0  0  0  0  0  0  0  0  0  0
   -9.3427   -0.3361  -24.1158 H   0  0  0  0  0  0  0  0  0  0  0  0
  -10.5963   -1.0556  -23.1509 H   0  0  0  0  0  0  0  0  0  0  0  0
   -8.5762   -2.5959  -24.9116 H   0  0  0  0  0  0  0  0  0  0  0  0
  -10.2737   -2.3747  -25.2359 H   0  0  0  0  0  0  0  0  0  0  0  0
  -10.6781   -3.5122  -22.9241 H   0  0  0  0  0  0  0  0  0  0  0  0
  -11.1143   -5.1063  -24.6923 H   0  0  0  0  0  0  0  0  0  0  0  0
   -9.9558   -5.8715  -23.6555 H   0  0  0  0  0  0  0  0  0  0  0  0
   -9.4031   -5.1174  -25.1563 H   0  0  0  0  0  0  0  0  0  0  0  0
  1  2  1  0
  2  3  1  0
  3  4  1  0
  4  5  1  0
  5  6  2  0
  6  7  1  0
  6  8  1  0
  8  9  1  0
  9 10  2  0
 10 11  1  0
 11 12  2  0
 12 13  1  0
 13 14  2  0
 14 15  1  0
 15 16  2  0
 16 17  1  0
 17 18  2  0
 17 19  1  0
 16 20  1  0
 15 21  1  0
 14 22  1  0
 12 23  1  0
 10 24  1  0
  8 25  1  0
 25 26  2  0
 25 27  1  0
 27 28  1  0
 28 29  1  0
 28 30  1  0
  4 31  1  0
  4 32  1  0
  3 33  1  0
  3 34  1  0
  2 35  1  1
  1 36  1  0
  1 37  1  0
  1 38  1  0
 28  2  1  0
 27  5  1  0
 18  9  1  0
 18 13  1  0
M  CHG  1   7  -1
M  END
>  <cnnaffinities>  (18) 
[5.19574]

>  <score>  (18) 
5.19574

>  <index>  (18) 
17

>  <Smiles>  (18) 
C([C@@]1(C(C(c2c([O-])n(c3c(nc(c4c(c(c(c(c34)[H])[H])[H])[H])[H])[H])c(=O)n2C1([H])[H])([H])[H])([H])[H])[H])([H])([H])[H]

>  <h>  (18) 
<NA>

>  <Training>  (18) 
True

>  <Success>  (18) 
True

>  <enamine_searched>  (18) 
False

>  <enamine_id>  (18) 
nan

$$$$

     RDKit          3D

 56 61  0  0  0  0  0  0  0  0999 V2000
   -7.8956   -3.5674  -24.1200 C   0  0  0  0  0  0  0  0  0  0  0  0
   -8.2875   -2.8406  -22.8257 C   0  0  1  0  0  0  0  0  0  0  0  0
   -7.0700   -2.5935  -21.9077 C   0  0  0  0  0  0  0  0  0  0  0  0
   -7.4007   -1.3730  -21.2016 N   0  0  0  0  0  0  0  0  0  0  0  0
   -6.6008   -0.8086  -20.1704 C   0  0  0  0  0  0  0  0  0  0  0  0
   -6.9067   -1.0487  -18.8578 C   0  0  0  0  0  0  0  0  0  0  0  0
   -6.2014   -0.5601  -17.8082 N   0  0  0  0  0  0  0  0  0  0  0  0
   -5.1720    0.2054  -18.0754 C   0  0  0  0  0  0  0  0  0  0  0  0
   -4.7404    0.5439  -19.3900 C   0  0  0  0  0  0  0  0  0  0  0  0
   -3.6130    1.3793  -19.6312 C   0  0  0  0  0  0  0  0  0  0  0  0
   -3.2288    1.6767  -20.9076 C   0  0  0  0  0  0  0  0  0  0  0  0
   -3.9568    1.1573  -21.9977 C   0  0  0  0  0  0  0  0  0  0  0  0
   -5.0400    0.3323  -21.7924 C   0  0  0  0  0  0  0  0  0  0  0  0
   -5.4718    0.0141  -20.4785 C   0  0  0  0  0  0  0  0  0  0  0  0
   -5.5749   -0.0643  -22.6509 H   0  0  0  0  0  0  0  0  0  0  0  0
   -3.6506    1.3840  -23.0150 H   0  0  0  0  0  0  0  0  0  0  0  0
   -2.3609    2.3069  -21.0923 H   0  0  0  0  0  0  0  0  0  0  0  0
   -3.0732    1.7700  -18.7721 H   0  0  0  0  0  0  0  0  0  0  0  0
   -4.6225    0.6103  -17.2245 H   0  0  0  0  0  0  0  0  0  0  0  0
   -7.7646   -1.6687  -18.6035 H   0  0  0  0  0  0  0  0  0  0  0  0
   -8.4585   -0.6720  -21.7320 C   0  0  0  0  0  0  0  0  0  0  0  0
   -8.8800    0.3621  -21.2649 O   0  0  0  0  0  0  0  0  0  0  0  0
   -8.9972   -1.4527  -22.9687 C   0  0  1  0  0  0  0  0  0  0  0  0
   -8.5722   -0.7556  -24.2852 C   0  0  0  0  0  0  0  0  0  0  0  0
   -9.2840    0.4834  -24.5172 N   0  0  0  0  0  0  0  0  0  0  0  0
   -8.5260    1.6880  -24.8195 C   0  0  0  0  0  0  0  0  0  0  0  0
   -8.1646    2.4935  -23.5956 C   0  0  0  0  0  0  0  0  0  0  0  0
   -8.9559    3.4637  -22.9448 C   0  0  0  0  0  0  0  0  0  0  0  0
   -8.1307    3.9782  -21.9665 C   0  0  0  0  0  0  0  0  0  0  0  0
   -6.9653    3.3073  -22.0525 N   0  0  0  0  0  0  0  0  0  0  0  0
   -6.9663    2.3783  -23.0234 N   0  0  0  0  0  0  0  0  0  0  0  0
   -6.2288    3.3363  -21.3672 H   0  0  0  0  0  0  0  0  0  0  0  0
   -8.2752    4.7199  -21.1938 H   0  0  0  0  0  0  0  0  0  0  0  0
  -10.0107    3.6241  -23.1181 H   0  0  0  0  0  0  0  0  0  0  0  0
   -7.6043    1.3929  -25.3352 H   0  0  0  0  0  0  0  0  0  0  0  0
   -9.1435    2.2829  -25.5008 H   0  0  0  0  0  0  0  0  0  0  0  0
  -10.6378    0.5872  -24.3733 C   0  0  0  0  0  0  0  0  0  0  0  0
  -11.2758    1.5485  -24.7851 O   0  0  0  0  0  0  0  0  0  0  0  0
  -11.2865   -0.5381  -23.6261 C   0  0  0  0  0  0  0  0  0  0  0  0
  -12.6792   -0.5547  -23.5617 C   0  0  0  0  0  0  0  0  0  0  0  0
  -13.3241   -1.4654  -22.7512 C   0  0  0  0  0  0  0  0  0  0  0  0
  -12.5531   -2.3288  -21.9824 C   0  0  0  0  0  0  0  0  0  0  0  0
  -13.1786   -3.1549  -21.1295 F   0  0  0  0  0  0  0  0  0  0  0  0
  -11.1772   -2.3488  -22.0470 C   0  0  0  0  0  0  0  0  0  0  0  0
  -10.5167   -1.4773  -22.9215 C   0  0  0  0  0  0  0  0  0  0  0  0
  -10.6438   -3.0205  -21.3849 H   0  0  0  0  0  0  0  0  0  0  0  0
  -14.4008   -1.5031  -22.6651 H   0  0  0  0  0  0  0  0  0  0  0  0
  -13.2164    0.1905  -24.1411 H   0  0  0  0  0  0  0  0  0  0  0  0
   -7.5050   -0.5098  -24.2253 H   0  0  0  0  0  0  0  0  0  0  0  0
   -8.7521   -1.4427  -25.1255 H   0  0  0  0  0  0  0  0  0  0  0  0
   -6.9047   -3.4144  -21.1990 H   0  0  0  0  0  0  0  0  0  0  0  0
   -6.1455   -2.4727  -22.4940 H   0  0  0  0  0  0  0  0  0  0  0  0
   -8.9897   -3.4774  -22.2845 H   0  0  0  0  0  0  0  0  0  0  0  0
   -8.7508   -3.7180  -24.7891 H   0  0  0  0  0  0  0  0  0  0  0  0
   -7.1335   -3.0058  -24.6744 H   0  0  0  0  0  0  0  0  0  0  0  0
   -7.4718   -4.5530  -23.8985 H   0  0  0  0  0  0  0  0  0  0  0  0
  1  2  1  0
  2  3  1  0
  3  4  1  0
  4  5  1  0
  5  6  2  0
  6  7  1  0
  7  8  2  0
  8  9  1  0
  9 10  2  0
 10 11  1  0
 11 12  2  0
 12 13  1  0
 13 14  2  0
 13 15  1  0
 12 16  1  0
 11 17  1  0
 10 18  1  0
  8 19  1  0
  6 20  1  0
  4 21  1  0
 21 22  2  0
 21 23  1  0
 23 24  1  6
 24 25  1  0
 25 26  1  0
 26 27  1  0
 27 28  1  0
 28 29  2  0
 29 30  1  0
 30 31  1  0
 30 32  1  0
 29 33  1  0
 28 34  1  0
 26 35  1  0
 26 36  1  0
 25 37  1  0
 37 38  2  0
 37 39  1  0
 39 40  2  0
 40 41  1  0
 41 42  2  0
 42 43  1  0
 42 44  1  0
 44 45  2  0
 44 46  1  0
 41 47  1  0
 40 48  1  0
 24 49  1  0
 24 50  1  0
  3 51  1  0
  3 52  1  0
  2 53  1  1
  1 54  1  0
  1 55  1  0
  1 56  1  0
 23  2  1  0
 31 27  2  0
 45 39  1  0
 14  5  1  0
 45 23  1  0
 14  9  1  0
M  END
>  <cnnaffinities>  (19) 
[6.15924]

>  <score>  (19) 
6.15924

>  <index>  (19) 
18

>  <Smiles>  (19) 
C([C@]1(C(N(c2c(nc(c3c(c(c(c(c23)[H])[H])[H])[H])[H])[H])C(=O)[C@]21C(N(C(c1c(c(n(n1)[H])[H])[H])([H])[H])C(=O)c1c(c(c(F)c(c21)[H])[H])[H])([H])[H])([H])[H])[H])([H])([H])[H]

>  <h>  (19) 
<NA>

>  <Training>  (19) 
True

>  <Success>  (19) 
True

>  <enamine_searched>  (19) 
False

>  <enamine_id>  (19) 
nan

$$$$

     RDKit          3D

 42 45  0  0  0  0  0  0  0  0999 V2000
   -9.1474   -0.0648  -20.7252 O   0  0  0  0  0  0  0  0  0  0  0  0
   -8.6543   -0.9065  -21.4510 C   0  0  0  0  0  0  0  0  0  0  0  0
   -9.3665   -1.5022  -22.6778 C   0  0  1  0  0  0  0  0  0  0  0  0
  -10.4387   -0.5584  -23.1895 C   0  0  0  0  0  0  0  0  0  0  0  0
  -10.1011    0.7532  -23.5142 C   0  0  0  0  0  0  0  0  0  0  0  0
  -11.0717    1.6258  -23.9720 C   0  0  0  0  0  0  0  0  0  0  0  0
  -12.3998    1.2392  -24.0863 C   0  0  0  0  0  0  0  0  0  0  0  0
  -13.5498    2.5019  -24.3736 Cl  0  0  0  0  0  0  0  0  0  0  0  0
  -12.7275   -0.0998  -23.8644 C   0  0  0  0  0  0  0  0  0  0  0  0
  -14.3300   -0.6930  -24.1142 Cl  0  0  0  0  0  0  0  0  0  0  0  0
  -11.7481   -0.9859  -23.4065 C   0  0  0  0  0  0  0  0  0  0  0  0
  -12.0450   -2.0125  -23.1874 H   0  0  0  0  0  0  0  0  0  0  0  0
  -10.8320    2.6512  -24.2097 H   0  0  0  0  0  0  0  0  0  0  0  0
   -9.0893    1.1203  -23.3418 H   0  0  0  0  0  0  0  0  0  0  0  0
   -8.3343   -1.7858  -23.7766 C   0  0  0  0  0  0  0  0  0  0  0  0
   -7.2411   -2.7549  -23.3391 C   0  0  2  0  0  0  0  0  0  0  0  0
   -7.5403   -4.1049  -23.6624 O   0  0  0  0  0  0  0  0  0  0  0  0
   -8.3918   -4.3239  -23.2620 H   0  0  0  0  0  0  0  0  0  0  0  0
   -6.9334   -2.6359  -21.8365 C   0  0  0  0  0  0  0  0  0  0  0  0
   -7.3754   -1.3766  -21.2539 N   0  0  0  0  0  0  0  0  0  0  0  0
   -6.6089   -0.8066  -20.1922 C   0  0  0  0  0  0  0  0  0  0  0  0
   -6.9078   -1.0557  -18.8778 C   0  0  0  0  0  0  0  0  0  0  0  0
   -6.1986   -0.5688  -17.8279 N   0  0  0  0  0  0  0  0  0  0  0  0
   -5.1677    0.2003  -18.0791 C   0  0  0  0  0  0  0  0  0  0  0  0
   -4.7306    0.5322  -19.3922 C   0  0  0  0  0  0  0  0  0  0  0  0
   -3.6028    1.3639  -19.6308 C   0  0  0  0  0  0  0  0  0  0  0  0
   -3.2293    1.6700  -20.9105 C   0  0  0  0  0  0  0  0  0  0  0  0
   -3.9732    1.1669  -22.0005 C   0  0  0  0  0  0  0  0  0  0  0  0
   -5.0557    0.3499  -21.7922 C   0  0  0  0  0  0  0  0  0  0  0  0
   -5.4677    0.0138  -20.4802 C   0  0  0  0  0  0  0  0  0  0  0  0
   -5.5882   -0.0826  -22.6320 H   0  0  0  0  0  0  0  0  0  0  0  0
   -3.6476    1.3710  -23.0153 H   0  0  0  0  0  0  0  0  0  0  0  0
   -2.3588    2.2914  -21.1016 H   0  0  0  0  0  0  0  0  0  0  0  0
   -3.0612    1.7633  -18.7773 H   0  0  0  0  0  0  0  0  0  0  0  0
   -4.6248    0.6099  -17.2246 H   0  0  0  0  0  0  0  0  0  0  0  0
   -7.7576   -1.6735  -18.5975 H   0  0  0  0  0  0  0  0  0  0  0  0
   -7.3913   -3.5103  -21.3393 H   0  0  0  0  0  0  0  0  0  0  0  0
   -5.8584   -2.6936  -21.6671 H   0  0  0  0  0  0  0  0  0  0  0  0
   -6.3400   -2.5451  -23.9206 H   0  0  0  0  0  0  0  0  0  0  0  0
   -7.8961   -0.8284  -24.0870 H   0  0  0  0  0  0  0  0  0  0  0  0
   -8.8246   -2.2060  -24.6604 H   0  0  0  0  0  0  0  0  0  0  0  0
   -9.8464   -2.4443  -22.3763 H   0  0  0  0  0  0  0  0  0  0  0  0
  1  2  2  0
  2  3  1  0
  3  4  1  0
  4  5  2  0
  5  6  1  0
  6  7  2  0
  7  8  1  0
  7  9  1  0
  9 10  1  0
  9 11  2  0
 11 12  1  0
  6 13  1  0
  5 14  1  0
  3 15  1  0
 15 16  1  0
 16 17  1  0
 17 18  1  0
 16 19  1  0
 19 20  1  0
 20 21  1  0
 21 22  2  0
 22 23  1  0
 23 24  2  0
 24 25  1  0
 25 26  2  0
 26 27  1  0
 27 28  2  0
 28 29  1  0
 29 30  2  0
 29 31  1  0
 28 32  1  0
 27 33  1  0
 26 34  1  0
 24 35  1  0
 22 36  1  0
 19 37  1  0
 19 38  1  0
 16 39  1  6
 15 40  1  0
 15 41  1  0
  3 42  1  1
 20  2  1  0
 30 21  1  0
 11  4  1  0
 30 25  1  0
M  END
>  <cnnaffinities>  (20) 
[5.50024]

>  <score>  (20) 
5.50024

>  <index>  (20) 
19

>  <Smiles>  (20) 
O=C1[C@@](c2c(c(c(Cl)c(Cl)c2[H])[H])[H])(C([C@](O[H])(C(N1c1c(nc(c2c(c(c(c(c12)[H])[H])[H])[H])[H])[H])([H])[H])[H])([H])[H])[H]

>  <h>  (20) 
<NA>

>  <Training>  (20) 
True

>  <Success>  (20) 
True

>  <enamine_searched>  (20) 
False

>  <enamine_id>  (20) 
nan

$$$$

     RDKit          3D

 66 71  0  0  0  0  0  0  0  0999 V2000
   -7.4316    3.3680  -21.7914 C   0  0  0  0  0  0  0  0  0  0  0  0
   -8.3169    2.9153  -22.8448 N   0  0  0  0  0  0  0  0  0  0  0  0
   -7.7578    2.2208  -23.8649 C   0  0  0  0  0  0  0  0  0  0  0  0
   -6.5476    2.1036  -23.9849 O   0  0  0  0  0  0  0  0  0  0  0  0
   -8.7025    1.5940  -24.8866 C   0  0  0  0  0  0  0  0  0  0  0  0
   -9.4136    0.4406  -24.3673 N   0  0  0  0  0  0  0  0  0  0  0  0
   -8.6850   -0.8029  -24.2016 C   0  0  0  0  0  0  0  0  0  0  0  0
   -9.0791   -1.5281  -22.8894 C   0  0  2  0  0  0  0  0  0  0  0  0
   -8.5308   -0.7456  -21.6682 C   0  0  0  0  0  0  0  0  0  0  0  0
   -8.9929    0.2658  -21.1793 O   0  0  0  0  0  0  0  0  0  0  0  0
   -7.3994   -1.3802  -21.2051 N   0  0  0  0  0  0  0  0  0  0  0  0
   -6.6049   -0.8096  -20.1733 C   0  0  0  0  0  0  0  0  0  0  0  0
   -6.9113   -1.0501  -18.8572 C   0  0  0  0  0  0  0  0  0  0  0  0
   -6.2085   -0.5605  -17.8063 N   0  0  0  0  0  0  0  0  0  0  0  0
   -5.1752    0.2020  -18.0721 C   0  0  0  0  0  0  0  0  0  0  0  0
   -4.7437    0.5416  -19.3864 C   0  0  0  0  0  0  0  0  0  0  0  0
   -3.6188    1.3773  -19.6289 C   0  0  0  0  0  0  0  0  0  0  0  0
   -3.2427    1.6884  -20.9066 C   0  0  0  0  0  0  0  0  0  0  0  0
   -3.9848    1.1916  -22.0022 C   0  0  0  0  0  0  0  0  0  0  0  0
   -5.0713    0.3733  -21.7941 C   0  0  0  0  0  0  0  0  0  0  0  0
   -5.4840    0.0266  -20.4807 C   0  0  0  0  0  0  0  0  0  0  0  0
   -5.6077   -0.0286  -22.6504 H   0  0  0  0  0  0  0  0  0  0  0  0
   -3.6845    1.4232  -23.0186 H   0  0  0  0  0  0  0  0  0  0  0  0
   -2.3727    2.3147  -21.0881 H   0  0  0  0  0  0  0  0  0  0  0  0
   -3.0704    1.7601  -18.7705 H   0  0  0  0  0  0  0  0  0  0  0  0
   -4.6213    0.6039  -17.2227 H   0  0  0  0  0  0  0  0  0  0  0  0
   -7.7692   -1.6721  -18.6086 H   0  0  0  0  0  0  0  0  0  0  0  0
   -7.0554   -2.5854  -21.9322 C   0  0  0  0  0  0  0  0  0  0  0  0
   -8.3287   -2.8915  -22.7492 C   0  0  2  0  0  0  0  0  0  0  0  0
   -8.0197   -3.6727  -24.0461 C   0  0  0  0  0  0  0  0  0  0  0  0
   -7.4767   -5.0614  -23.7748 C   0  0  0  0  0  0  0  0  0  0  0  0
   -8.3520   -6.1167  -23.5009 C   0  0  0  0  0  0  0  0  0  0  0  0
   -7.8737   -7.3926  -23.2157 C   0  0  0  0  0  0  0  0  0  0  0  0
   -6.5022   -7.6371  -23.1963 C   0  0  0  0  0  0  0  0  0  0  0  0
   -5.6170   -6.5963  -23.4700 C   0  0  0  0  0  0  0  0  0  0  0  0
   -6.1023   -5.3208  -23.7542 C   0  0  0  0  0  0  0  0  0  0  0  0
   -5.4013   -4.5124  -23.9655 H   0  0  0  0  0  0  0  0  0  0  0  0
   -4.5440   -6.7814  -23.4609 H   0  0  0  0  0  0  0  0  0  0  0  0
   -6.1264   -8.6340  -22.9701 H   0  0  0  0  0  0  0  0  0  0  0  0
   -8.5770   -8.1982  -23.0099 H   0  0  0  0  0  0  0  0  0  0  0  0
   -9.4270   -5.9353  -23.5140 H   0  0  0  0  0  0  0  0  0  0  0  0
   -8.9392   -3.7537  -24.6439 H   0  0  0  0  0  0  0  0  0  0  0  0
   -7.2912   -3.1110  -24.6491 H   0  0  0  0  0  0  0  0  0  0  0  0
   -8.9743   -3.5275  -22.1375 H   0  0  0  0  0  0  0  0  0  0  0  0
   -6.7940   -3.4020  -21.2460 H   0  0  0  0  0  0  0  0  0  0  0  0
   -6.1847   -2.4131  -22.5874 H   0  0  0  0  0  0  0  0  0  0  0  0
  -10.5981   -1.5879  -22.8229 C   0  0  0  0  0  0  0  0  0  0  0  0
  -11.2311   -2.4350  -21.9066 C   0  0  0  0  0  0  0  0  0  0  0  0
  -12.6095   -2.3879  -21.7742 C   0  0  0  0  0  0  0  0  0  0  0  0
  -13.3874   -3.2194  -20.4593 Cl  0  0  0  0  0  0  0  0  0  0  0  0
  -13.4017   -1.5851  -22.5960 C   0  0  0  0  0  0  0  0  0  0  0  0
  -12.7805   -0.7159  -23.4618 C   0  0  0  0  0  0  0  0  0  0  0  0
  -11.3923   -0.6775  -23.5357 C   0  0  0  0  0  0  0  0  0  0  0  0
  -10.7791    0.4750  -24.2749 C   0  0  0  0  0  0  0  0  0  0  0  0
  -11.4575    1.3961  -24.7115 O   0  0  0  0  0  0  0  0  0  0  0  0
  -13.3202    0.0152  -24.0513 H   0  0  0  0  0  0  0  0  0  0  0  0
  -14.4812   -1.6346  -22.5325 H   0  0  0  0  0  0  0  0  0  0  0  0
  -10.6563   -3.1313  -21.3025 H   0  0  0  0  0  0  0  0  0  0  0  0
   -8.8986   -1.4736  -25.0492 H   0  0  0  0  0  0  0  0  0  0  0  0
   -7.6166   -0.5547  -24.1990 H   0  0  0  0  0  0  0  0  0  0  0  0
   -9.4843    2.2957  -25.1856 H   0  0  0  0  0  0  0  0  0  0  0  0
   -8.0750    1.3155  -25.7449 H   0  0  0  0  0  0  0  0  0  0  0  0
   -9.3010    2.7898  -22.6454 H   0  0  0  0  0  0  0  0  0  0  0  0
   -6.7350    4.1146  -22.1832 H   0  0  0  0  0  0  0  0  0  0  0  0
   -8.0216    3.8026  -20.9873 H   0  0  0  0  0  0  0  0  0  0  0  0
   -6.8360    2.5246  -21.4188 H   0  0  0  0  0  0  0  0  0  0  0  0
  1  2  1  0
  2  3  1  0
  3  4  2  0
  3  5  1  0
  5  6  1  0
  6  7  1  0
  8  7  1  6
  8  9  1  0
  9 10  2  0
  9 11  1  0
 11 12  1  0
 12 13  2  0
 13 14  1  0
 14 15  2  0
 15 16  1  0
 16 17  2  0
 17 18  1  0
 18 19  2  0
 19 20  1  0
 20 21  2  0
 20 22  1  0
 19 23  1  0
 18 24  1  0
 17 25  1  0
 15 26  1  0
 13 27  1  0
 11 28  1  0
 28 29  1  0
 29 30  1  0
 30 31  1  0
 31 32  2  0
 32 33  1  0
 33 34  2  0
 34 35  1  0
 35 36  2  0
 36 37  1  0
 35 38  1  0
 34 39  1  0
 33 40  1  0
 32 41  1  0
 30 42  1  0
 30 43  1  0
 29 44  1  1
 28 45  1  0
 28 46  1  0
  8 47  1  0
 47 48  2  0
 48 49  1  0
 49 50  1  0
 49 51  2  0
 51 52  1  0
 52 53  2  0
 53 54  1  0
 54 55  2  0
 52 56  1  0
 51 57  1  0
 48 58  1  0
  7 59  1  0
  7 60  1  0
  5 61  1  0
  5 62  1  0
  2 63  1  0
  1 64  1  0
  1 65  1  0
  1 66  1  0
 54  6  1  0
 29  8  1  0
 36 31  1  0
 53 47  1  0
 21 12  1  0
 21 16  1  0
M  END
>  <cnnaffinities>  (21) 
[6.96545, 6.94921]

>  <score>  (21) 
6.96545

>  <index>  (21) 
20

>  <Smiles>  (21) 
C(N(C(=O)C(N1C([C@@]2(C(=O)N(c3c(nc(c4c(c(c(c(c34)[H])[H])[H])[H])[H])[H])C([C@@]2(C(c2c(c(c(c(c2[H])[H])[H])[H])[H])([H])[H])[H])([H])[H])c2c(c(Cl)c(c(c2C1=O)[H])[H])[H])([H])[H])([H])[H])[H])([H])([H])[H]

>  <h>  (21) 
<NA>

>  <Training>  (21) 
True

>  <Success>  (21) 
True

>  <enamine_searched>  (21) 
False

>  <enamine_id>  (21) 
nan

$$$$

     RDKit          3D

 63 68  0  0  0  0  0  0  0  0999 V2000
  -10.2000   -2.9819  -22.0661 C   0  0  0  0  0  0  0  0  0  0  0  0
   -9.1325   -2.0402  -22.6362 C   0  0  1  0  0  0  0  0  0  0  0  0
   -8.6690   -1.0372  -21.5649 C   0  0  0  0  0  0  0  0  0  0  0  0
   -7.3435   -1.4799  -21.2000 N   0  0  0  0  0  0  0  0  0  0  0  0
   -6.5813   -0.8538  -20.1898 C   0  0  0  0  0  0  0  0  0  0  0  0
   -6.9164   -1.0634  -18.8794 C   0  0  0  0  0  0  0  0  0  0  0  0
   -6.2395   -0.5613  -17.8212 N   0  0  0  0  0  0  0  0  0  0  0  0
   -5.2037    0.1992  -18.0879 C   0  0  0  0  0  0  0  0  0  0  0  0
   -4.7698    0.5277  -19.4044 C   0  0  0  0  0  0  0  0  0  0  0  0
   -3.6436    1.3634  -19.6198 C   0  0  0  0  0  0  0  0  0  0  0  0
   -3.2707    1.7066  -20.8891 C   0  0  0  0  0  0  0  0  0  0  0  0
   -4.0150    1.2422  -21.9965 C   0  0  0  0  0  0  0  0  0  0  0  0
   -5.0935    0.4090  -21.8214 C   0  0  0  0  0  0  0  0  0  0  0  0
   -5.4879    0.0140  -20.5069 C   0  0  0  0  0  0  0  0  0  0  0  0
   -5.6258    0.0306  -22.6955 H   0  0  0  0  0  0  0  0  0  0  0  0
   -3.7059    1.5230  -22.9987 H   0  0  0  0  0  0  0  0  0  0  0  0
   -2.4094    2.3463  -21.0520 H   0  0  0  0  0  0  0  0  0  0  0  0
   -3.1019    1.7285  -18.7519 H   0  0  0  0  0  0  0  0  0  0  0  0
   -4.6502    0.6018  -17.2393 H   0  0  0  0  0  0  0  0  0  0  0  0
   -7.7710   -1.6973  -18.6492 H   0  0  0  0  0  0  0  0  0  0  0  0
   -6.8086   -2.4490  -22.0131 C   0  0  0  0  0  0  0  0  0  0  0  0
   -5.7251   -2.9716  -21.8413 O   0  0  0  0  0  0  0  0  0  0  0  0
   -7.8212   -2.7204  -23.1464 C   0  0  1  0  0  0  0  0  0  0  0  0
   -7.9868   -4.2325  -23.3627 C   0  0  0  0  0  0  0  0  0  0  0  0
   -6.8081   -4.8181  -23.9765 N   0  0  0  0  0  0  0  0  0  0  0  0
   -6.4325   -6.1628  -23.5814 C   0  0  0  0  0  0  0  0  0  0  0  0
   -7.4399   -7.1646  -24.1529 C   0  0  0  0  0  0  0  0  0  0  0  0
   -8.3844   -7.5941  -23.5148 O   0  0  0  0  0  0  0  0  0  0  0  0
   -7.2118   -7.4661  -25.4665 N   0  0  0  0  0  0  0  0  0  0  0  0
   -8.3598   -7.9100  -26.2510 C   0  0  0  0  0  0  0  0  0  0  0  0
   -9.3645   -6.7946  -26.4322 C   0  0  0  0  0  0  0  0  0  0  0  0
   -8.9940   -5.5813  -27.2362 C   0  0  0  0  0  0  0  0  0  0  0  0
  -10.0377   -6.5426  -27.7436 C   0  0  0  0  0  0  0  0  0  0  0  0
  -11.0802   -6.2389  -27.7245 H   0  0  0  0  0  0  0  0  0  0  0  0
   -9.7670   -7.1815  -28.5820 H   0  0  0  0  0  0  0  0  0  0  0  0
   -8.0286   -5.5902  -27.7431 H   0  0  0  0  0  0  0  0  0  0  0  0
   -9.3148   -4.6135  -26.8540 H   0  0  0  0  0  0  0  0  0  0  0  0
   -9.9631   -6.6209  -25.5399 H   0  0  0  0  0  0  0  0  0  0  0  0
   -7.9834   -8.2692  -27.2152 H   0  0  0  0  0  0  0  0  0  0  0  0
   -8.8362   -8.7524  -25.7410 H   0  0  0  0  0  0  0  0  0  0  0  0
   -6.5516   -6.8510  -25.9390 H   0  0  0  0  0  0  0  0  0  0  0  0
   -5.4234   -6.3586  -23.9540 H   0  0  0  0  0  0  0  0  0  0  0  0
   -6.4375   -6.2068  -22.4914 H   0  0  0  0  0  0  0  0  0  0  0  0
   -6.2874   -4.3059  -25.1220 C   0  0  0  0  0  0  0  0  0  0  0  0
   -5.5986   -4.9859  -25.8836 O   0  0  0  0  0  0  0  0  0  0  0  0
   -6.5953   -2.8659  -25.3796 C   0  0  0  0  0  0  0  0  0  0  0  0
   -6.1240   -2.3028  -26.5634 C   0  0  0  0  0  0  0  0  0  0  0  0
   -6.3533   -0.9754  -26.8564 C   0  0  0  0  0  0  0  0  0  0  0  0
   -7.0546   -0.2261  -25.9219 C   0  0  0  0  0  0  0  0  0  0  0  0
   -7.2892    1.0668  -26.1974 F   0  0  0  0  0  0  0  0  0  0  0  0
   -7.5301   -0.7522  -24.7368 C   0  0  0  0  0  0  0  0  0  0  0  0
   -7.3194   -2.1066  -24.4516 C   0  0  0  0  0  0  0  0  0  0  0  0
   -8.0852   -0.0972  -24.0726 H   0  0  0  0  0  0  0  0  0  0  0  0
   -6.0074   -0.5163  -27.7756 H   0  0  0  0  0  0  0  0  0  0  0  0
   -5.5722   -2.9473  -27.2347 H   0  0  0  0  0  0  0  0  0  0  0  0
   -8.1490   -4.7383  -22.4134 H   0  0  0  0  0  0  0  0  0  0  0  0
   -8.8858   -4.3917  -23.9754 H   0  0  0  0  0  0  0  0  0  0  0  0
   -8.6631    0.0019  -21.9242 H   0  0  0  0  0  0  0  0  0  0  0  0
   -9.3227   -1.0637  -20.6966 H   0  0  0  0  0  0  0  0  0  0  0  0
   -9.5999   -1.5170  -23.4766 H   0  0  0  0  0  0  0  0  0  0  0  0
  -10.5815   -3.6656  -22.8280 H   0  0  0  0  0  0  0  0  0  0  0  0
   -9.8140   -3.5755  -21.2317 H   0  0  0  0  0  0  0  0  0  0  0  0
  -11.0479   -2.3965  -21.7005 H   0  0  0  0  0  0  0  0  0  0  0  0
  1  2  1  0
  2  3  1  0
  3  4  1  0
  4  5  1  0
  5  6  2  0
  6  7  1  0
  7  8  2  0
  8  9  1  0
  9 10  2  0
 10 11  1  0
 11 12  2  0
 12 13  1  0
 13 14  2  0
 13 15  1  0
 12 16  1  0
 11 17  1  0
 10 18  1  0
  8 19  1  0
  6 20  1  0
  4 21  1  0
 21 22  2  0
 21 23  1  0
 23 24  1  6
 24 25  1  0
 25 26  1  0
 26 27  1  0
 27 28  2  0
 27 29  1  0
 29 30  1  0
 30 31  1  0
 31 32  1  0
 32 33  1  0
 33 34  1  0
 33 35  1  0
 32 36  1  0
 32 37  1  0
 31 38  1  0
 30 39  1  0
 30 40  1  0
 29 41  1  0
 26 42  1  0
 26 43  1  0
 25 44  1  0
 44 45  2  0
 44 46  1  0
 46 47  2  0
 47 48  1  0
 48 49  2  0
 49 50  1  0
 49 51  1  0
 51 52  2  0
 51 53  1  0
 48 54  1  0
 47 55  1  0
 24 56  1  0
 24 57  1  0
  3 58  1  0
  3 59  1  0
  2 60  1  6
  1 61  1  0
  1 62  1  0
  1 63  1  0
 23  2  1  0
 33 31  1  0
 52 46  1  0
 14  5  1  0
 52 23  1  0
 14  9  1  0
M  END
>  <cnnaffinities>  (22) 
[5.69936, 6.36953]

>  <score>  (22) 
5.69936

>  <index>  (22) 
21

>  <Smiles>  (22) 
C([C@]1(C(N(c2c(nc(c3c(c(c(c(c23)[H])[H])[H])[H])[H])[H])C(=O)[C@]21C(N(C(C(=O)N(C(C1(C(C1([H])[H])([H])[H])[H])([H])[H])[H])([H])[H])C(=O)c1c(c(c(F)c(c21)[H])[H])[H])([H])[H])([H])[H])[H])([H])([H])[H]

>  <h>  (22) 
<NA>

>  <Training>  (22) 
True

>  <Success>  (22) 
True

>  <enamine_searched>  (22) 
False

>  <enamine_id>  (22) 
nan

$$$$

     RDKit          3D

 68 73  0  0  0  0  0  0  0  0999 V2000
   -7.2958    3.4586  -21.9651 C   0  0  0  0  0  0  0  0  0  0  0  0
   -8.2537    2.9606  -22.9393 N   0  0  0  0  0  0  0  0  0  0  0  0
   -7.7719    2.2338  -23.9902 C   0  0  0  0  0  0  0  0  0  0  0  0
   -6.5789    2.0340  -24.1552 O   0  0  0  0  0  0  0  0  0  0  0  0
   -8.8219    1.6693  -24.9496 C   0  0  0  0  0  0  0  0  0  0  0  0
   -9.4855    0.5281  -24.3449 N   0  0  0  0  0  0  0  0  0  0  0  0
   -8.7232   -0.7020  -24.1680 C   0  0  0  0  0  0  0  0  0  0  0  0
   -9.1335   -1.4833  -22.8903 C   0  0  2  0  0  0  0  0  0  0  0  0
   -8.6032   -0.7194  -21.6453 C   0  0  0  0  0  0  0  0  0  0  0  0
   -9.0781    0.2776  -21.1415 O   0  0  0  0  0  0  0  0  0  0  0  0
   -7.4717   -1.3488  -21.1863 N   0  0  0  0  0  0  0  0  0  0  0  0
   -6.6698   -0.7763  -20.1684 C   0  0  0  0  0  0  0  0  0  0  0  0
   -6.9656   -1.0461  -18.8586 C   0  0  0  0  0  0  0  0  0  0  0  0
   -6.2508   -0.5912  -17.8033 N   0  0  0  0  0  0  0  0  0  0  0  0
   -5.2136    0.1696  -18.0604 C   0  0  0  0  0  0  0  0  0  0  0  0
   -4.7975    0.5358  -19.3721 C   0  0  0  0  0  0  0  0  0  0  0  0
   -3.6700    1.3697  -19.5981 C   0  0  0  0  0  0  0  0  0  0  0  0
   -3.3156    1.7315  -20.8698 C   0  0  0  0  0  0  0  0  0  0  0  0
   -4.0796    1.2874  -21.9731 C   0  0  0  0  0  0  0  0  0  0  0  0
   -5.1661    0.4643  -21.7825 C   0  0  0  0  0  0  0  0  0  0  0  0
   -5.5512    0.0609  -20.4731 C   0  0  0  0  0  0  0  0  0  0  0  0
   -5.7516    0.1483  -22.6412 H   0  0  0  0  0  0  0  0  0  0  0  0
   -3.8151    1.5987  -22.9797 H   0  0  0  0  0  0  0  0  0  0  0  0
   -2.4511    2.3673  -21.0392 H   0  0  0  0  0  0  0  0  0  0  0  0
   -3.1109    1.7205  -18.7350 H   0  0  0  0  0  0  0  0  0  0  0  0
   -4.6405    0.5407  -17.2095 H   0  0  0  0  0  0  0  0  0  0  0  0
   -7.8256   -1.6699  -18.6241 H   0  0  0  0  0  0  0  0  0  0  0  0
   -7.0982   -2.5198  -21.9429 C   0  0  0  0  0  0  0  0  0  0  0  0
   -8.3619   -2.8428  -22.7554 C   0  0  2  0  0  0  0  0  0  0  0  0
   -7.9610   -3.6201  -24.0118 C   0  0  0  0  0  0  0  0  0  0  0  0
   -9.0901   -4.2653  -24.6307 N   0  0  0  0  0  0  0  0  0  0  0  0
   -8.9933   -4.8849  -25.8739 C   0  0  0  0  0  0  0  0  0  0  0  0
  -10.1353   -5.5259  -26.3813 C   0  0  0  0  0  0  0  0  0  0  0  0
  -10.1329   -6.0772  -27.6552 C   0  0  0  0  0  0  0  0  0  0  0  0
   -9.0005   -5.9860  -28.4648 C   0  0  0  0  0  0  0  0  0  0  0  0
   -7.8360   -5.4475  -27.9300 C   0  0  0  0  0  0  0  0  0  0  0  0
   -7.8103   -4.9270  -26.6370 C   0  0  0  0  0  0  0  0  0  0  0  0
   -6.8712   -4.5782  -26.2198 H   0  0  0  0  0  0  0  0  0  0  0  0
   -6.9294   -5.4431  -28.5332 H   0  0  0  0  0  0  0  0  0  0  0  0
   -9.0252   -6.3758  -29.4791 H   0  0  0  0  0  0  0  0  0  0  0  0
  -11.0380   -6.5691  -28.0184 H   0  0  0  0  0  0  0  0  0  0  0  0
  -11.0401   -5.5959  -25.7706 H   0  0  0  0  0  0  0  0  0  0  0  0
   -9.9983   -3.8598  -24.4334 H   0  0  0  0  0  0  0  0  0  0  0  0
   -7.2271   -4.3864  -23.7275 H   0  0  0  0  0  0  0  0  0  0  0  0
   -7.4119   -2.9552  -24.7006 H   0  0  0  0  0  0  0  0  0  0  0  0
   -8.9842   -3.5103  -22.1516 H   0  0  0  0  0  0  0  0  0  0  0  0
   -6.8080   -3.3450  -21.2801 H   0  0  0  0  0  0  0  0  0  0  0  0
   -6.2440   -2.3123  -22.6096 H   0  0  0  0  0  0  0  0  0  0  0  0
  -10.6552   -1.5395  -22.8172 C   0  0  0  0  0  0  0  0  0  0  0  0
  -11.3010   -2.4040  -21.9220 C   0  0  0  0  0  0  0  0  0  0  0  0
  -12.6730   -2.3157  -21.7394 C   0  0  0  0  0  0  0  0  0  0  0  0
  -13.4391   -3.2180  -20.4670 Cl  0  0  0  0  0  0  0  0  0  0  0  0
  -13.4619   -1.4330  -22.4751 C   0  0  0  0  0  0  0  0  0  0  0  0
  -12.8358   -0.5753  -23.3507 C   0  0  0  0  0  0  0  0  0  0  0  0
  -11.4475   -0.5839  -23.4735 C   0  0  0  0  0  0  0  0  0  0  0  0
  -10.8451    0.5561  -24.2316 C   0  0  0  0  0  0  0  0  0  0  0  0
  -11.5342    1.4673  -24.6745 O   0  0  0  0  0  0  0  0  0  0  0  0
  -13.3917    0.1564  -23.9261 H   0  0  0  0  0  0  0  0  0  0  0  0
  -14.5330   -1.3846  -22.3101 H   0  0  0  0  0  0  0  0  0  0  0  0
  -10.7422   -3.1091  -21.3168 H   0  0  0  0  0  0  0  0  0  0  0  0
   -7.6633   -0.4348  -24.1061 H   0  0  0  0  0  0  0  0  0  0  0  0
   -8.8624   -1.3400  -25.0508 H   0  0  0  0  0  0  0  0  0  0  0  0
   -8.3305    1.3879  -25.8893 H   0  0  0  0  0  0  0  0  0  0  0  0
   -9.6033    2.4013  -25.1780 H   0  0  0  0  0  0  0  0  0  0  0  0
   -9.1814    2.7431  -22.5943 H   0  0  0  0  0  0  0  0  0  0  0  0
   -6.7419    2.6324  -21.5013 H   0  0  0  0  0  0  0  0  0  0  0  0
   -7.8140    4.0328  -21.1943 H   0  0  0  0  0  0  0  0  0  0  0  0
   -6.5758    4.1124  -22.4643 H   0  0  0  0  0  0  0  0  0  0  0  0
  1  2  1  0
  2  3  1  0
  3  4  2  0
  3  5  1  0
  5  6  1  0
  6  7  1  0
  8  7  1  6
  8  9  1  0
  9 10  2  0
  9 11  1  0
 11 12  1  0
 12 13  2  0
 13 14  1  0
 14 15  2  0
 15 16  1  0
 16 17  2  0
 17 18  1  0
 18 19  2  0
 19 20  1  0
 20 21  2  0
 20 22  1  0
 19 23  1  0
 18 24  1  0
 17 25  1  0
 15 26  1  0
 13 27  1  0
 11 28  1  0
 28 29  1  0
 29 30  1  0
 30 31  1  0
 31 32  1  0
 32 33  2  0
 33 34  1  0
 34 35  2  0
 35 36  1  0
 36 37  2  0
 37 38  1  0
 36 39  1  0
 35 40  1  0
 34 41  1  0
 33 42  1  0
 31 43  1  0
 30 44  1  0
 30 45  1  0
 29 46  1  1
 28 47  1  0
 28 48  1  0
  8 49  1  0
 49 50  2  0
 50 51  1  0
 51 52  1  0
 51 53  2  0
 53 54  1  0
 54 55  2  0
 55 56  1  0
 56 57  2  0
 54 58  1  0
 53 59  1  0
 50 60  1  0
  7 61  1  0
  7 62  1  0
  5 63  1  0
  5 64  1  0
  2 65  1  0
  1 66  1  0
  1 67  1  0
  1 68  1  0
 56  6  1  0
 29  8  1  0
 37 32  1  0
 55 49  1  0
 21 12  1  0
 21 16  1  0
M  END
>  <cnnaffinities>  (23) 
[6.3174]

>  <score>  (23) 
6.3174

>  <index>  (23) 
23

>  <Smiles>  (23) 
C(N(C(=O)C(N1C([C@@]2(C(=O)N(c3c(nc(c4c(c(c(c(c34)[H])[H])[H])[H])[H])[H])C([C@@]2(C(N(c2c(c(c(c(c2[H])[H])[H])[H])[H])[H])([H])[H])[H])([H])[H])c2c(c(Cl)c(c(c2C1=O)[H])[H])[H])([H])[H])([H])[H])[H])([H])([H])[H]

>  <h>  (23) 
<NA>

>  <Training>  (23) 
True

>  <Success>  (23) 
True

>  <enamine_searched>  (23) 
False

>  <enamine_id>  (23) 
nan

$$$$

     RDKit          3D

 65 70  0  0  0  0  0  0  0  0999 V2000
   -5.0030   -7.4626  -22.8164 O   0  0  0  0  0  0  0  0  0  0  0  0
   -5.9107   -7.3364  -23.6169 C   0  0  0  0  0  0  0  0  0  0  0  0
   -7.2255   -6.6255  -23.2621 C   0  0  0  0  0  0  0  0  0  0  0  0
   -7.2185   -5.1718  -23.5980 N   0  0  1  0  0  4  0  0  0  0  0  0
   -7.2992   -4.9431  -25.0926 C   0  0  0  0  0  0  0  0  0  0  0  0
   -7.2283   -3.4832  -25.4254 C   0  0  0  0  0  0  0  0  0  0  0  0
   -6.8109   -3.0961  -26.6965 C   0  0  0  0  0  0  0  0  0  0  0  0
   -6.6816   -1.7567  -27.0339 C   0  0  0  0  0  0  0  0  0  0  0  0
   -6.9690   -0.7993  -26.0670 C   0  0  0  0  0  0  0  0  0  0  0  0
   -6.7814    0.8912  -26.4531 Cl  0  0  0  0  0  0  0  0  0  0  0  0
   -7.4040   -1.1635  -24.8018 C   0  0  0  0  0  0  0  0  0  0  0  0
   -7.5705   -2.5159  -24.4821 C   0  0  0  0  0  0  0  0  0  0  0  0
   -8.0517   -2.8997  -23.0937 C   0  0  2  0  0  0  0  0  0  0  0  0
   -9.2194   -2.0443  -22.5852 C   0  0  0  0  0  0  0  0  0  0  0  0
   -8.6355   -1.0482  -21.5700 C   0  0  0  0  0  0  0  0  0  0  0  0
   -7.2977   -1.5458  -21.2974 N   0  0  0  0  0  0  0  0  0  0  0  0
   -6.5213   -0.9619  -20.2543 C   0  0  0  0  0  0  0  0  0  0  0  0
   -6.8810   -1.1669  -18.9443 C   0  0  0  0  0  0  0  0  0  0  0  0
   -6.2408   -0.6405  -17.8719 N   0  0  0  0  0  0  0  0  0  0  0  0
   -5.2244    0.1540  -18.1047 C   0  0  0  0  0  0  0  0  0  0  0  0
   -4.7728    0.5004  -19.4091 C   0  0  0  0  0  0  0  0  0  0  0  0
   -3.6728    1.3760  -19.6064 C   0  0  0  0  0  0  0  0  0  0  0  0
   -3.3014    1.7460  -20.8686 C   0  0  0  0  0  0  0  0  0  0  0  0
   -4.0187    1.2658  -21.9861 C   0  0  0  0  0  0  0  0  0  0  0  0
   -5.0674    0.3920  -21.8265 C   0  0  0  0  0  0  0  0  0  0  0  0
   -5.4578   -0.0366  -20.5274 C   0  0  0  0  0  0  0  0  0  0  0  0
   -5.5847    0.0068  -22.7038 H   0  0  0  0  0  0  0  0  0  0  0  0
   -3.7179    1.5630  -22.9854 H   0  0  0  0  0  0  0  0  0  0  0  0
   -2.4594    2.4154  -21.0234 H   0  0  0  0  0  0  0  0  0  0  0  0
   -3.1449    1.7502  -18.7328 H   0  0  0  0  0  0  0  0  0  0  0  0
   -4.7106    0.5780  -17.2400 H   0  0  0  0  0  0  0  0  0  0  0  0
   -7.7349   -1.8006  -18.7048 H   0  0  0  0  0  0  0  0  0  0  0  0
   -6.9374   -2.6137  -22.0813 C   0  0  0  0  0  0  0  0  0  0  0  0
   -5.9274   -3.2975  -22.0130 O   0  0  0  0  0  0  0  0  0  0  0  0
   -9.2171   -1.0325  -20.6508 H   0  0  0  0  0  0  0  0  0  0  0  0
   -8.6152   -0.0133  -21.9405 H   0  0  0  0  0  0  0  0  0  0  0  0
   -9.7430   -1.5401  -23.4007 H   0  0  0  0  0  0  0  0  0  0  0  0
   -9.9535   -2.6894  -22.0916 H   0  0  0  0  0  0  0  0  0  0  0  0
   -8.3580   -4.3999  -22.9880 C   0  0  0  0  0  0  0  0  0  0  0  0
   -8.4597   -4.6651  -21.9333 H   0  0  0  0  0  0  0  0  0  0  0  0
   -9.2932   -4.6489  -23.5015 H   0  0  0  0  0  0  0  0  0  0  0  0
   -7.6075   -0.3828  -24.0723 H   0  0  0  0  0  0  0  0  0  0  0  0
   -6.3521   -1.4492  -28.0210 H   0  0  0  0  0  0  0  0  0  0  0  0
   -6.5697   -3.8643  -27.4254 H   0  0  0  0  0  0  0  0  0  0  0  0
   -8.2441   -5.3718  -25.4608 H   0  0  0  0  0  0  0  0  0  0  0  0
   -6.4891   -5.4689  -25.5946 H   0  0  0  0  0  0  0  0  0  0  0  0
   -6.3531   -4.7281  -23.2054 H   0  0  0  0  0  0  0  0  0  0  0  0
   -7.3997   -6.7634  -22.1933 H   0  0  0  0  0  0  0  0  0  0  0  0
   -8.0529   -7.1085  -23.8000 H   0  0  0  0  0  0  0  0  0  0  0  0
   -5.8575   -7.8080  -24.8967 N   0  0  0  0  0  0  0  0  0  0  0  0
   -4.7898   -8.6742  -25.3642 C   0  0  0  0  0  0  0  0  0  0  0  0
   -4.5909   -8.5586  -26.8668 C   0  0  1  0  0  0  0  0  0  0  0  0
   -5.8440   -8.6391  -27.7815 C   0  0  0  0  0  0  0  0  0  0  0  0
   -5.5412   -7.2172  -28.2892 C   0  0  1  0  0  0  0  0  0  0  0  0
   -6.5494   -6.3082  -27.9524 F   0  0  0  0  0  0  0  0  0  0  0  0
   -4.3126   -7.1169  -27.3674 C   0  0  0  0  0  0  0  0  0  0  0  0
   -3.3425   -6.9131  -27.8368 H   0  0  0  0  0  0  0  0  0  0  0  0
   -4.4727   -6.3799  -26.5781 H   0  0  0  0  0  0  0  0  0  0  0  0
   -5.3557   -7.1166  -29.3634 H   0  0  0  0  0  0  0  0  0  0  0  0
   -5.7857   -9.4211  -28.5408 H   0  0  0  0  0  0  0  0  0  0  0  0
   -6.8169   -8.7562  -27.2906 H   0  0  0  0  0  0  0  0  0  0  0  0
   -3.8298   -9.2747  -27.1878 H   0  0  0  0  0  0  0  0  0  0  0  0
   -4.9923   -9.7054  -25.0491 H   0  0  0  0  0  0  0  0  0  0  0  0
   -3.8766   -8.3484  -24.8569 H   0  0  0  0  0  0  0  0  0  0  0  0
   -6.6769   -7.6789  -25.4667 H   0  0  0  0  0  0  0  0  0  0  0  0
  1  2  2  0
  2  3  1  0
  3  4  1  0
  4  5  1  0
  5  6  1  0
  6  7  2  0
  7  8  1  0
  8  9  2  0
  9 10  1  0
  9 11  1  0
 11 12  2  0
 12 13  1  0
 13 14  1  1
 14 15  1  0
 15 16  1  0
 16 17  1  0
 17 18  2  0
 18 19  1  0
 19 20  2  0
 20 21  1  0
 21 22  2  0
 22 23  1  0
 23 24  2  0
 24 25  1  0
 25 26  2  0
 25 27  1  0
 24 28  1  0
 23 29  1  0
 22 30  1  0
 20 31  1  0
 18 32  1  0
 16 33  1  0
 33 34  2  0
 15 35  1  0
 15 36  1  0
 14 37  1  0
 14 38  1  0
 13 39  1  0
 39 40  1  0
 39 41  1  0
 11 42  1  0
  8 43  1  0
  7 44  1  0
  5 45  1  0
  5 46  1  0
  4 47  1  1
  3 48  1  0
  3 49  1  0
  2 50  1  0
 50 51  1  0
 51 52  1  0
 52 53  1  0
 53 54  1  0
 54 55  1  0
 54 56  1  0
 56 57  1  0
 56 58  1  0
 54 59  1  6
 53 60  1  0
 53 61  1  0
 52 62  1  6
 51 63  1  0
 51 64  1  0
 50 65  1  0
 39  4  1  0
 56 52  1  0
 12  6  1  0
 33 13  1  0
 26 17  1  0
 26 21  1  0
M  CHG  1   4   1
M  END
>  <cnnaffinities>  (24) 
[6.16424]

>  <score>  (24) 
6.16424

>  <index>  (24) 
24

>  <Smiles>  (24) 
O=C(C([N@+]1(C(c2c(c(c(Cl)c(c2[C@@]2(C(C(N(c3c(nc(c4c(c(c(c(c34)[H])[H])[H])[H])[H])[H])C2=O)([H])[H])([H])[H])C1([H])[H])[H])[H])[H])([H])[H])[H])([H])[H])N(C([C@]1(C([C@@](F)(C1([H])[H])[H])([H])[H])[H])([H])[H])[H]

>  <h>  (24) 
<NA>

>  <Training>  (24) 
True

>  <Success>  (24) 
True

>  <enamine_searched>  (24) 
False

>  <enamine_id>  (24) 
nan

$$$$

     RDKit          3D

 70 75  0  0  0  0  0  0  0  0999 V2000
   -5.8071   -7.8122  -25.5348 O   0  0  0  0  0  0  0  0  0  0  0  0
   -5.6783   -7.1859  -24.4950 C   0  0  0  0  0  0  0  0  0  0  0  0
   -6.8526   -6.4225  -23.8685 C   0  0  0  0  0  0  0  0  0  0  0  0
   -6.7808   -4.9144  -23.9740 N   0  0  1  0  0  4  0  0  0  0  0  0
   -6.7622   -4.5243  -25.4519 C   0  0  0  0  0  0  0  0  0  0  0  0
   -6.7695   -3.0277  -25.6399 C   0  0  0  0  0  0  0  0  0  0  0  0
   -6.2827   -2.4799  -26.8292 C   0  0  0  0  0  0  0  0  0  0  0  0
   -6.2999   -1.1091  -27.0515 C   0  0  0  0  0  0  0  0  0  0  0  0
   -6.8128   -0.2781  -26.0618 C   0  0  0  0  0  0  0  0  0  0  0  0
   -6.8496    1.4469  -26.3184 Cl  0  0  0  0  0  0  0  0  0  0  0  0
   -7.3022   -0.8059  -24.8754 C   0  0  0  0  0  0  0  0  0  0  0  0
   -7.2959   -2.1857  -24.6590 C   0  0  0  0  0  0  0  0  0  0  0  0
   -7.8086   -2.7012  -23.3240 C   0  0  2  0  0  0  0  0  0  0  0  0
   -6.8322   -2.3336  -22.2096 C   0  0  0  0  0  0  0  0  0  0  0  0
   -5.7229   -2.8439  -22.1951 O   0  0  0  0  0  0  0  0  0  0  0  0
   -7.3091   -1.4346  -21.2703 N   0  0  0  0  0  0  0  0  0  0  0  0
   -6.5584   -0.8543  -20.2134 C   0  0  0  0  0  0  0  0  0  0  0  0
   -6.8940   -1.0662  -18.8952 C   0  0  0  0  0  0  0  0  0  0  0  0
   -6.2114   -0.5655  -17.8348 N   0  0  0  0  0  0  0  0  0  0  0  0
   -5.1755    0.1982  -18.0832 C   0  0  0  0  0  0  0  0  0  0  0  0
   -4.7408    0.5343  -19.3949 C   0  0  0  0  0  0  0  0  0  0  0  0
   -3.6211    1.3809  -19.6186 C   0  0  0  0  0  0  0  0  0  0  0  0
   -3.2576    1.7195  -20.8935 C   0  0  0  0  0  0  0  0  0  0  0  0
   -4.0066    1.2479  -21.9960 C   0  0  0  0  0  0  0  0  0  0  0  0
   -5.0841    0.4182  -21.8061 C   0  0  0  0  0  0  0  0  0  0  0  0
   -5.4629    0.0197  -20.4942 C   0  0  0  0  0  0  0  0  0  0  0  0
   -5.6290    0.0288  -22.6601 H   0  0  0  0  0  0  0  0  0  0  0  0
   -3.6994    1.4967  -23.0076 H   0  0  0  0  0  0  0  0  0  0  0  0
   -2.3900    2.3496  -21.0697 H   0  0  0  0  0  0  0  0  0  0  0  0
   -3.0756    1.7496  -18.7525 H   0  0  0  0  0  0  0  0  0  0  0  0
   -4.6300    0.5961  -17.2265 H   0  0  0  0  0  0  0  0  0  0  0  0
   -7.7521   -1.6822  -18.6272 H   0  0  0  0  0  0  0  0  0  0  0  0
   -8.3142   -1.3730  -21.1712 H   0  0  0  0  0  0  0  0  0  0  0  0
   -7.9844   -4.2237  -23.3139 C   0  0  0  0  0  0  0  0  0  0  0  0
   -8.8844   -4.4976  -23.8723 H   0  0  0  0  0  0  0  0  0  0  0  0
   -8.0779   -4.5773  -22.2845 H   0  0  0  0  0  0  0  0  0  0  0  0
   -8.7658   -2.2206  -23.1043 H   0  0  0  0  0  0  0  0  0  0  0  0
   -7.6893   -0.1391  -24.1101 H   0  0  0  0  0  0  0  0  0  0  0  0
   -5.9245   -0.6780  -27.9748 H   0  0  0  0  0  0  0  0  0  0  0  0
   -5.8808   -3.1364  -27.5988 H   0  0  0  0  0  0  0  0  0  0  0  0
   -7.6455   -4.9739  -25.9301 H   0  0  0  0  0  0  0  0  0  0  0  0
   -5.8934   -4.9756  -25.9356 H   0  0  0  0  0  0  0  0  0  0  0  0
   -5.9426   -4.5032  -23.4949 H   0  0  0  0  0  0  0  0  0  0  0  0
   -7.7337   -6.7814  -24.4056 H   0  0  0  0  0  0  0  0  0  0  0  0
   -6.9804   -6.6961  -22.8190 H   0  0  0  0  0  0  0  0  0  0  0  0
   -4.5056   -7.1129  -23.7981 N   0  0  0  0  0  0  0  0  0  0  0  0
   -3.2960   -7.7499  -24.1782 C   0  0  0  0  0  0  0  0  0  0  0  0
   -2.0733   -7.1098  -23.9634 C   0  0  0  0  0  0  0  0  0  0  0  0
   -0.8886   -7.7073  -24.3870 C   0  0  0  0  0  0  0  0  0  0  0  0
   -0.9057   -8.9492  -25.0269 C   0  0  0  0  0  0  0  0  0  0  0  0
    0.3197   -9.5432  -25.4770 N   0  0  0  0  0  0  0  0  0  0  0  0
    1.3336   -9.8754  -24.4780 C   0  0  0  0  0  0  0  0  0  0  0  0
    2.6538  -10.2417  -25.1427 C   0  0  0  0  0  0  0  0  0  0  0  0
    2.4276  -11.1949  -26.1521 O   0  0  0  0  0  0  0  0  0  0  0  0
    1.7047  -10.6246  -27.2098 C   0  0  0  0  0  0  0  0  0  0  0  0
    0.4046   -9.9438  -26.7879 C   0  0  0  0  0  0  0  0  0  0  0  0
   -0.4681   -9.7272  -27.6095 O   0  0  0  0  0  0  0  0  0  0  0  0
    2.3130   -9.8662  -27.7330 H   0  0  0  0  0  0  0  0  0  0  0  0
    1.4551  -11.4287  -27.9056 H   0  0  0  0  0  0  0  0  0  0  0  0
    3.1448   -9.3543  -25.5714 H   0  0  0  0  0  0  0  0  0  0  0  0
    3.3361  -10.6997  -24.4182 H   0  0  0  0  0  0  0  0  0  0  0  0
    1.4735   -9.0115  -23.8204 H   0  0  0  0  0  0  0  0  0  0  0  0
    0.9793  -10.7233  -23.8766 H   0  0  0  0  0  0  0  0  0  0  0  0
   -2.1285   -9.6066  -25.1955 C   0  0  0  0  0  0  0  0  0  0  0  0
   -3.3119   -9.0111  -24.7736 C   0  0  0  0  0  0  0  0  0  0  0  0
   -4.2631   -9.5066  -24.9248 H   0  0  0  0  0  0  0  0  0  0  0  0
   -2.1631  -10.5786  -25.6866 H   0  0  0  0  0  0  0  0  0  0  0  0
    0.0585   -7.1907  -24.2317 H   0  0  0  0  0  0  0  0  0  0  0  0
   -2.0429   -6.1427  -23.4668 H   0  0  0  0  0  0  0  0  0  0  0  0
   -4.5060   -6.5302  -22.9769 H   0  0  0  0  0  0  0  0  0  0  0  0
  1  2  2  0
  2  3  1  0
  3  4  1  0
  4  5  1  0
  5  6  1  0
  6  7  2  0
  7  8  1  0
  8  9  2  0
  9 10  1  0
  9 11  1  0
 11 12  2  0
 12 13  1  0
 13 14  1  0
 14 15  2  0
 14 16  1  0
 16 17  1  0
 17 18  2  0
 18 19  1  0
 19 20  2  0
 20 21  1  0
 21 22  2  0
 22 23  1  0
 23 24  2  0
 24 25  1  0
 25 26  2  0
 25 27  1  0
 24 28  1  0
 23 29  1  0
 22 30  1  0
 20 31  1  0
 18 32  1  0
 16 33  1  0
 13 34  1  0
 34 35  1  0
 34 36  1  0
 13 37  1  1
 11 38  1  0
  8 39  1  0
  7 40  1  0
  5 41  1  0
  5 42  1  0
  4 43  1  1
  3 44  1  0
  3 45  1  0
  2 46  1  0
 46 47  1  0
 47 48  2  0
 48 49  1  0
 49 50  2  0
 50 51  1  0
 51 52  1  0
 52 53  1  0
 53 54  1  0
 54 55  1  0
 55 56  1  0
 56 57  2  0
 55 58  1  0
 55 59  1  0
 53 60  1  0
 53 61  1  0
 52 62  1  0
 52 63  1  0
 50 64  1  0
 64 65  2  0
 65 66  1  0
 64 67  1  0
 49 68  1  0
 48 69  1  0
 46 70  1  0
 34  4  1  0
 65 47  1  0
 12  6  1  0
 26 17  1  0
 56 51  1  0
 26 21  1  0
M  CHG  1   4   1
M  END
>  <cnnaffinities>  (25) 
[5.97648]

>  <score>  (25) 
5.97648

>  <index>  (25) 
25

>  <Smiles>  (25) 
O=C(C([N@+]1(C(c2c(c(c(Cl)c(c2[C@](C(=O)N(c2c(nc(c3c(c(c(c(c23)[H])[H])[H])[H])[H])[H])[H])(C1([H])[H])[H])[H])[H])[H])([H])[H])[H])([H])[H])N(c1c(c(c(N2C(C(OC(C2=O)([H])[H])([H])[H])([H])[H])c(c1[H])[H])[H])[H])[H]

>  <h>  (25) 
<NA>

>  <Training>  (25) 
True

>  <Success>  (25) 
True

>  <enamine_searched>  (25) 
False

>  <enamine_id>  (25) 
nan

$$$$

     RDKit          3D

 55 60  0  0  0  0  0  0  0  0999 V2000
   -7.8793   -3.6217  -24.0840 C   0  0  0  0  0  0  0  0  0  0  0  0
   -8.2896   -2.8525  -22.8195 C   0  0  1  0  0  0  0  0  0  0  0  0
   -7.0934   -2.6223  -21.8707 C   0  0  0  0  0  0  0  0  0  0  0  0
   -7.4089   -1.3785  -21.1979 N   0  0  0  0  0  0  0  0  0  0  0  0
   -6.6090   -0.8021  -20.1742 C   0  0  0  0  0  0  0  0  0  0  0  0
   -6.9058   -1.0487  -18.8598 C   0  0  0  0  0  0  0  0  0  0  0  0
   -6.1964   -0.5626  -17.8120 N   0  0  0  0  0  0  0  0  0  0  0  0
   -5.1689    0.2081  -18.0762 C   0  0  0  0  0  0  0  0  0  0  0  0
   -4.7412    0.5464  -19.3915 C   0  0  0  0  0  0  0  0  0  0  0  0
   -3.6120    1.3789  -19.6316 C   0  0  0  0  0  0  0  0  0  0  0  0
   -3.2263    1.6794  -20.9091 C   0  0  0  0  0  0  0  0  0  0  0  0
   -3.9579    1.1606  -21.9991 C   0  0  0  0  0  0  0  0  0  0  0  0
   -5.0439    0.3382  -21.7913 C   0  0  0  0  0  0  0  0  0  0  0  0
   -5.4777    0.0218  -20.4791 C   0  0  0  0  0  0  0  0  0  0  0  0
   -5.5645   -0.0767  -22.6487 H   0  0  0  0  0  0  0  0  0  0  0  0
   -3.6456    1.3710  -23.0154 H   0  0  0  0  0  0  0  0  0  0  0  0
   -2.3544    2.3000  -21.0946 H   0  0  0  0  0  0  0  0  0  0  0  0
   -3.0714    1.7711  -18.7747 H   0  0  0  0  0  0  0  0  0  0  0  0
   -4.6236    0.6118  -17.2226 H   0  0  0  0  0  0  0  0  0  0  0  0
   -7.7551   -1.6731  -18.5960 H   0  0  0  0  0  0  0  0  0  0  0  0
   -8.4113   -0.6456  -21.7940 C   0  0  0  0  0  0  0  0  0  0  0  0
   -8.7787    0.4348  -21.3871 O   0  0  0  0  0  0  0  0  0  0  0  0
   -8.9502   -1.4464  -23.0159 C   0  0  1  0  0  0  0  0  0  0  0  0
   -8.4864   -0.7993  -24.3459 C   0  0  0  0  0  0  0  0  0  0  0  0
   -9.1482    0.4561  -24.6221 N   0  0  0  0  0  0  0  0  0  0  0  0
   -8.3534    1.6316  -24.9499 C   0  0  0  0  0  0  0  0  0  0  0  0
   -8.0482    2.4971  -23.7543 C   0  0  0  0  0  0  0  0  0  0  0  0
   -8.8781    3.4281  -23.1131 C   0  0  0  0  0  0  0  0  0  0  0  0
   -8.2156    3.9620  -22.0920 N   0  0  0  0  0  0  0  0  0  0  0  0
   -7.0536    3.3535  -22.1332 N   0  0  0  0  0  0  0  0  0  0  0  0
   -6.8792    2.4733  -23.1058 N   0  0  0  0  0  0  0  0  0  0  0  0
   -6.3710    3.5134  -21.4030 H   0  0  0  0  0  0  0  0  0  0  0  0
   -9.9074    3.6960  -23.3243 H   0  0  0  0  0  0  0  0  0  0  0  0
   -7.4079    1.3055  -25.3974 H   0  0  0  0  0  0  0  0  0  0  0  0
   -8.9192    2.2070  -25.6873 H   0  0  0  0  0  0  0  0  0  0  0  0
  -10.5015    0.6053  -24.4881 C   0  0  0  0  0  0  0  0  0  0  0  0
  -11.1016    1.5888  -24.9085 O   0  0  0  0  0  0  0  0  0  0  0  0
  -11.1938   -0.4893  -23.7376 C   0  0  0  0  0  0  0  0  0  0  0  0
  -12.5883   -0.4674  -23.6976 C   0  0  0  0  0  0  0  0  0  0  0  0
  -13.2821   -1.3291  -22.8743 C   0  0  0  0  0  0  0  0  0  0  0  0
  -12.5465   -2.1887  -22.0682 C   0  0  0  0  0  0  0  0  0  0  0  0
  -13.2094   -2.9857  -21.2162 F   0  0  0  0  0  0  0  0  0  0  0  0
  -11.1699   -2.2463  -22.0993 C   0  0  0  0  0  0  0  0  0  0  0  0
  -10.4674   -1.4293  -22.9920 C   0  0  0  0  0  0  0  0  0  0  0  0
  -10.6717   -2.9038  -21.3959 H   0  0  0  0  0  0  0  0  0  0  0  0
  -14.3634   -1.3326  -22.8064 H   0  0  0  0  0  0  0  0  0  0  0  0
  -13.0966    0.2689  -24.3072 H   0  0  0  0  0  0  0  0  0  0  0  0
   -7.4149   -0.5858  -24.2686 H   0  0  0  0  0  0  0  0  0  0  0  0
   -8.6638   -1.5032  -25.1734 H   0  0  0  0  0  0  0  0  0  0  0  0
   -6.1462   -2.5513  -22.4298 H   0  0  0  0  0  0  0  0  0  0  0  0
   -6.9693   -3.4304  -21.1405 H   0  0  0  0  0  0  0  0  0  0  0  0
   -9.0296   -3.4542  -22.2875 H   0  0  0  0  0  0  0  0  0  0  0  0
   -7.4905   -4.6148  -23.8302 H   0  0  0  0  0  0  0  0  0  0  0  0
   -7.0873   -3.0971  -24.6329 H   0  0  0  0  0  0  0  0  0  0  0  0
   -8.7171   -3.7636  -24.7759 H   0  0  0  0  0  0  0  0  0  0  0  0
  1  2  1  0
  2  3  1  0
  3  4  1  0
  4  5  1  0
  5  6  2  0
  6  7  1  0
  7  8  2  0
  8  9  1  0
  9 10  2  0
 10 11  1  0
 11 12  2  0
 12 13  1  0
 13 14  2  0
 13 15  1  0
 12 16  1  0
 11 17  1  0
 10 18  1  0
  8 19  1  0
  6 20  1  0
  4 21  1  0
 21 22  2  0
 21 23  1  0
 23 24  1  6
 24 25  1  0
 25 26  1  0
 26 27  1  0
 27 28  1  0
 28 29  2  0
 29 30  1  0
 30 31  1  0
 30 32  1  0
 28 33  1  0
 26 34  1  0
 26 35  1  0
 25 36  1  0
 36 37  2  0
 36 38  1  0
 38 39  2  0
 39 40  1  0
 40 41  2  0
 41 42  1  0
 41 43  1  0
 43 44  2  0
 43 45  1  0
 40 46  1  0
 39 47  1  0
 24 48  1  0
 24 49  1  0
  3 50  1  0
  3 51  1  0
  2 52  1  1
  1 53  1  0
  1 54  1  0
  1 55  1  0
 23  2  1  0
 31 27  2  0
 44 38  1  0
 14  5  1  0
 44 23  1  0
 14  9  1  0
M  END
>  <cnnaffinities>  (26) 
[6.25339]

>  <score>  (26) 
6.25339

>  <index>  (26) 
26

>  <Smiles>  (26) 
C([C@]1(C(N(c2c(nc(c3c(c(c(c(c23)[H])[H])[H])[H])[H])[H])C(=O)[C@]21C(N(C(c1c(nn(n1)[H])[H])([H])[H])C(=O)c1c(c(c(F)c(c21)[H])[H])[H])([H])[H])([H])[H])[H])([H])([H])[H]

>  <h>  (26) 
<NA>

>  <Training>  (26) 
True

>  <Success>  (26) 
True

>  <enamine_searched>  (26) 
False

>  <enamine_id>  (26) 
nan

$$$$

     RDKit          3D

 58 62  0  0  0  0  0  0  0  0999 V2000
   -7.0434    3.5759  -22.0936 C   0  0  0  0  0  0  0  0  0  0  0  0
   -7.2839    2.5334  -23.0936 N   0  0  0  0  0  4  0  0  0  0  0  0
   -8.4382    2.8268  -23.9878 C   0  0  0  0  0  0  0  0  0  0  0  0
   -8.7138    1.6730  -24.9443 C   0  0  0  0  0  0  0  0  0  0  0  0
   -9.3756    0.5324  -24.3243 N   0  0  0  0  0  0  0  0  0  0  0  0
   -8.6724   -0.7296  -24.1923 C   0  0  0  0  0  0  0  0  0  0  0  0
   -9.0668   -1.4884  -22.9014 C   0  0  2  0  0  0  0  0  0  0  0  0
   -8.5304   -0.7303  -21.6574 C   0  0  0  0  0  0  0  0  0  0  0  0
   -8.9694    0.2944  -21.1752 O   0  0  0  0  0  0  0  0  0  0  0  0
   -7.4168   -1.3869  -21.1881 N   0  0  0  0  0  0  0  0  0  0  0  0
   -6.6087   -0.8047  -20.1702 C   0  0  0  0  0  0  0  0  0  0  0  0
   -6.9086   -1.0454  -18.8566 C   0  0  0  0  0  0  0  0  0  0  0  0
   -6.1985   -0.5605  -17.8093 N   0  0  0  0  0  0  0  0  0  0  0  0
   -5.1691    0.2038  -18.0803 C   0  0  0  0  0  0  0  0  0  0  0  0
   -4.7446    0.5450  -19.3959 C   0  0  0  0  0  0  0  0  0  0  0  0
   -3.6180    1.3812  -19.6353 C   0  0  0  0  0  0  0  0  0  0  0  0
   -3.2453    1.7002  -20.9124 C   0  0  0  0  0  0  0  0  0  0  0  0
   -3.9841    1.1989  -22.0035 C   0  0  0  0  0  0  0  0  0  0  0  0
   -5.0718    0.3798  -21.8000 C   0  0  0  0  0  0  0  0  0  0  0  0
   -5.4905    0.0312  -20.4864 C   0  0  0  0  0  0  0  0  0  0  0  0
   -5.5696   -0.0629  -22.6585 H   0  0  0  0  0  0  0  0  0  0  0  0
   -3.6648    1.4121  -23.0206 H   0  0  0  0  0  0  0  0  0  0  0  0
   -2.3728    2.3225  -21.0938 H   0  0  0  0  0  0  0  0  0  0  0  0
   -3.0752    1.7660  -18.7757 H   0  0  0  0  0  0  0  0  0  0  0  0
   -4.6220    0.6094  -17.2282 H   0  0  0  0  0  0  0  0  0  0  0  0
   -7.7613   -1.6704  -18.5999 H   0  0  0  0  0  0  0  0  0  0  0  0
   -7.0538   -2.5667  -21.9497 C   0  0  0  0  0  0  0  0  0  0  0  0
   -8.3111   -2.8538  -22.8018 C   0  0  2  0  0  0  0  0  0  0  0  0
   -7.9704   -3.5635  -24.1207 C   0  0  0  0  0  0  0  0  0  0  0  0
   -7.5148   -4.5450  -23.9354 H   0  0  0  0  0  0  0  0  0  0  0  0
   -8.8566   -3.7223  -24.7477 H   0  0  0  0  0  0  0  0  0  0  0  0
   -7.2498   -2.9805  -24.7104 H   0  0  0  0  0  0  0  0  0  0  0  0
   -8.9583   -3.5107  -22.2153 H   0  0  0  0  0  0  0  0  0  0  0  0
   -6.7999   -3.3936  -21.2752 H   0  0  0  0  0  0  0  0  0  0  0  0
   -6.1715   -2.3848  -22.5851 H   0  0  0  0  0  0  0  0  0  0  0  0
  -10.5841   -1.5559  -22.8460 C   0  0  0  0  0  0  0  0  0  0  0  0
  -11.2339   -2.4945  -22.0342 C   0  0  0  0  0  0  0  0  0  0  0  0
  -12.6077   -2.4552  -21.9325 C   0  0  0  0  0  0  0  0  0  0  0  0
  -13.2345   -3.2791  -21.0806 F   0  0  0  0  0  0  0  0  0  0  0  0
  -13.3875   -1.5570  -22.6480 C   0  0  0  0  0  0  0  0  0  0  0  0
  -12.7554   -0.5903  -23.3996 C   0  0  0  0  0  0  0  0  0  0  0  0
  -11.3619   -0.5649  -23.4689 C   0  0  0  0  0  0  0  0  0  0  0  0
  -10.7282    0.6029  -24.1642 C   0  0  0  0  0  0  0  0  0  0  0  0
  -11.3909    1.5609  -24.5459 O   0  0  0  0  0  0  0  0  0  0  0  0
  -13.3067    0.1964  -23.9072 H   0  0  0  0  0  0  0  0  0  0  0  0
  -14.4616   -1.6212  -22.5466 H   0  0  0  0  0  0  0  0  0  0  0  0
  -10.6958   -3.2252  -21.4411 H   0  0  0  0  0  0  0  0  0  0  0  0
   -8.8761   -1.3835  -25.0556 H   0  0  0  0  0  0  0  0  0  0  0  0
   -7.6009   -0.5074  -24.1583 H   0  0  0  0  0  0  0  0  0  0  0  0
   -7.7783    1.3118  -25.3848 H   0  0  0  0  0  0  0  0  0  0  0  0
   -9.3639    2.0518  -25.7299 H   0  0  0  0  0  0  0  0  0  0  0  0
   -9.3271    3.0119  -23.3764 H   0  0  0  0  0  0  0  0  0  0  0  0
   -8.2349    3.7332  -24.5678 H   0  0  0  0  0  0  0  0  0  0  0  0
   -6.4208    2.4038  -23.6747 H   0  0  0  0  0  0  0  0  0  0  0  0
   -7.4986    1.6392  -22.5994 H   0  0  0  0  0  0  0  0  0  0  0  0
   -6.1750    3.2992  -21.4959 H   0  0  0  0  0  0  0  0  0  0  0  0
   -7.9226    3.6793  -21.4511 H   0  0  0  0  0  0  0  0  0  0  0  0
   -6.8730    4.5490  -22.5677 H   0  0  0  0  0  0  0  0  0  0  0  0
  1  2  1  0
  2  3  1  0
  3  4  1  0
  4  5  1  0
  5  6  1  0
  7  6  1  6
  7  8  1  0
  8  9  2  0
  8 10  1  0
 10 11  1  0
 11 12  2  0
 12 13  1  0
 13 14  2  0
 14 15  1  0
 15 16  2  0
 16 17  1  0
 17 18  2  0
 18 19  1  0
 19 20  2  0
 19 21  1  0
 18 22  1  0
 17 23  1  0
 16 24  1  0
 14 25  1  0
 12 26  1  0
 10 27  1  0
 27 28  1  0
 28 29  1  0
 29 30  1  0
 29 31  1  0
 29 32  1  0
 28 33  1  1
 27 34  1  0
 27 35  1  0
  7 36  1  0
 36 37  2  0
 37 38  1  0
 38 39  1  0
 38 40  2  0
 40 41  1  0
 41 42  2  0
 42 43  1  0
 43 44  2  0
 41 45  1  0
 40 46  1  0
 37 47  1  0
  6 48  1  0
  6 49  1  0
  4 50  1  0
  4 51  1  0
  3 52  1  0
  3 53  1  0
  2 54  1  0
  2 55  1  0
  1 56  1  0
  1 57  1  0
  1 58  1  0
 43  5  1  0
 28  7  1  0
 42 36  1  0
 20 11  1  0
 20 15  1  0
M  CHG  1   2   1
M  END
>  <cnnaffinities>  (27) 
[6.02272]

>  <score>  (27) 
6.02272

>  <index>  (27) 
27

>  <Smiles>  (27) 
C([N+](C(C(N1C([C@@]2(C(=O)N(c3c(nc(c4c(c(c(c(c34)[H])[H])[H])[H])[H])[H])C([C@@]2(C([H])([H])[H])[H])([H])[H])c2c(c(F)c(c(c2C1=O)[H])[H])[H])([H])[H])([H])[H])([H])[H])([H])[H])([H])([H])[H]

>  <h>  (27) 
<NA>

>  <Training>  (27) 
True

>  <Success>  (27) 
True

>  <enamine_searched>  (27) 
False

>  <enamine_id>  (27) 
nan

$$$$

     RDKit          3D

 64 68  0  0  0  0  0  0  0  0999 V2000
   -7.2281    3.4199  -22.1244 C   0  0  0  0  0  0  0  0  0  0  0  0
   -8.1754    2.7685  -23.0013 N   0  0  0  0  0  0  0  0  0  0  0  0
   -7.7383    2.1288  -24.1151 C   0  0  0  0  0  0  0  0  0  0  0  0
   -6.5563    2.0327  -24.4211 O   0  0  0  0  0  0  0  0  0  0  0  0
   -8.8556    1.5527  -24.9814 C   0  0  0  0  0  0  0  0  0  0  0  0
   -9.5298    0.4443  -24.3308 N   0  0  0  0  0  0  0  0  0  0  0  0
   -8.7605   -0.7663  -24.1205 C   0  0  0  0  0  0  0  0  0  0  0  0
   -9.1686   -1.5168  -22.8251 C   0  0  2  0  0  0  0  0  0  0  0  0
   -8.6316   -0.7496  -21.6009 C   0  0  0  0  0  0  0  0  0  0  0  0
   -9.1430    0.2148  -21.0656 O   0  0  0  0  0  0  0  0  0  0  0  0
   -7.4580   -1.3406  -21.1956 N   0  0  0  0  0  0  0  0  0  0  0  0
   -6.6725   -0.7751  -20.1591 C   0  0  0  0  0  0  0  0  0  0  0  0
   -6.9748   -1.0504  -18.8511 C   0  0  0  0  0  0  0  0  0  0  0  0
   -6.2573   -0.6046  -17.7913 N   0  0  0  0  0  0  0  0  0  0  0  0
   -5.2197    0.1595  -18.0330 C   0  0  0  0  0  0  0  0  0  0  0  0
   -4.8047    0.5434  -19.3407 C   0  0  0  0  0  0  0  0  0  0  0  0
   -3.6833    1.3875  -19.5663 C   0  0  0  0  0  0  0  0  0  0  0  0
   -3.3507    1.7782  -20.8345 C   0  0  0  0  0  0  0  0  0  0  0  0
   -4.1265    1.3537  -21.9359 C   0  0  0  0  0  0  0  0  0  0  0  0
   -5.2072    0.5246  -21.7465 C   0  0  0  0  0  0  0  0  0  0  0  0
   -5.5660    0.0845  -20.4438 C   0  0  0  0  0  0  0  0  0  0  0  0
   -5.8215    0.2452  -22.5970 H   0  0  0  0  0  0  0  0  0  0  0  0
   -3.8905    1.6943  -22.9385 H   0  0  0  0  0  0  0  0  0  0  0  0
   -2.4970    2.4281  -21.0032 H   0  0  0  0  0  0  0  0  0  0  0  0
   -3.1077    1.7236  -18.7085 H   0  0  0  0  0  0  0  0  0  0  0  0
   -4.6494    0.5228  -17.1742 H   0  0  0  0  0  0  0  0  0  0  0  0
   -7.8362   -1.6714  -18.6144 H   0  0  0  0  0  0  0  0  0  0  0  0
   -7.0836   -2.5136  -21.9620 C   0  0  0  0  0  0  0  0  0  0  0  0
   -8.3877   -2.8684  -22.7136 C   0  0  2  0  0  0  0  0  0  0  0  0
   -8.1904   -3.5437  -24.0790 C   0  0  0  0  0  0  0  0  0  0  0  0
   -7.4201   -5.1493  -24.1163 S   0  0  0  0  0  0  0  0  0  0  0  0
   -6.1252   -5.0430  -23.4537 O   0  0  0  0  0  0  0  0  0  0  0  0
   -7.5239   -5.6126  -25.4946 O   0  0  0  0  0  0  0  0  0  0  0  0
   -8.4401   -6.0673  -23.1903 N   0  0  0  0  0  0  0  0  0  0  0  0
   -7.9849   -6.7167  -21.9701 C   0  0  0  0  0  0  0  0  0  0  0  0
   -8.8586   -6.9166  -21.3504 H   0  0  0  0  0  0  0  0  0  0  0  0
   -7.3250   -6.0342  -21.4380 H   0  0  0  0  0  0  0  0  0  0  0  0
   -7.4571   -7.6589  -22.1467 H   0  0  0  0  0  0  0  0  0  0  0  0
   -9.0826   -6.5959  -23.7645 H   0  0  0  0  0  0  0  0  0  0  0  0
   -7.5185   -2.9587  -24.7158 H   0  0  0  0  0  0  0  0  0  0  0  0
   -9.1531   -3.6550  -24.5944 H   0  0  0  0  0  0  0  0  0  0  0  0
   -8.9710   -3.5433  -22.0760 H   0  0  0  0  0  0  0  0  0  0  0  0
   -6.7488   -3.3158  -21.3000 H   0  0  0  0  0  0  0  0  0  0  0  0
   -6.2567   -2.3035  -22.6554 H   0  0  0  0  0  0  0  0  0  0  0  0
  -10.6859   -1.5959  -22.7666 C   0  0  0  0  0  0  0  0  0  0  0  0
  -11.3334   -2.4489  -21.8628 C   0  0  0  0  0  0  0  0  0  0  0  0
  -12.7090   -2.3861  -21.7065 C   0  0  0  0  0  0  0  0  0  0  0  0
  -13.4728   -3.2443  -20.3977 Cl  0  0  0  0  0  0  0  0  0  0  0  0
  -13.5070   -1.5555  -22.4943 C   0  0  0  0  0  0  0  0  0  0  0  0
  -12.8776   -0.7115  -23.3827 C   0  0  0  0  0  0  0  0  0  0  0  0
  -11.4877   -0.6893  -23.4770 C   0  0  0  0  0  0  0  0  0  0  0  0
  -10.8965    0.4206  -24.2878 C   0  0  0  0  0  0  0  0  0  0  0  0
  -11.6011    1.2759  -24.8098 O   0  0  0  0  0  0  0  0  0  0  0  0
  -13.4452   -0.0338  -24.0083 H   0  0  0  0  0  0  0  0  0  0  0  0
  -14.5804   -1.5322  -22.3382 H   0  0  0  0  0  0  0  0  0  0  0  0
  -10.7614   -3.1283  -21.2395 H   0  0  0  0  0  0  0  0  0  0  0  0
   -8.8737   -1.4281  -24.9865 H   0  0  0  0  0  0  0  0  0  0  0  0
   -7.7064   -0.4831  -24.0662 H   0  0  0  0  0  0  0  0  0  0  0  0
   -8.4125    1.2566  -25.9371 H   0  0  0  0  0  0  0  0  0  0  0  0
   -9.6216    2.3111  -25.1685 H   0  0  0  0  0  0  0  0  0  0  0  0
   -9.0999    2.5512  -22.6462 H   0  0  0  0  0  0  0  0  0  0  0  0
   -6.7108    2.6918  -21.4892 H   0  0  0  0  0  0  0  0  0  0  0  0
   -6.4808    3.9298  -22.7359 H   0  0  0  0  0  0  0  0  0  0  0  0
   -7.7410    4.1590  -21.5085 H   0  0  0  0  0  0  0  0  0  0  0  0
  1  2  1  0
  2  3  1  0
  3  4  2  0
  3  5  1  0
  5  6  1  0
  6  7  1  0
  8  7  1  6
  8  9  1  0
  9 10  2  0
  9 11  1  0
 11 12  1  0
 12 13  2  0
 13 14  1  0
 14 15  2  0
 15 16  1  0
 16 17  2  0
 17 18  1  0
 18 19  2  0
 19 20  1  0
 20 21  2  0
 20 22  1  0
 19 23  1  0
 18 24  1  0
 17 25  1  0
 15 26  1  0
 13 27  1  0
 11 28  1  0
 28 29  1  0
 29 30  1  0
 30 31  1  0
 31 32  2  0
 31 33  2  0
 31 34  1  0
 34 35  1  0
 35 36  1  0
 35 37  1  0
 35 38  1  0
 34 39  1  0
 30 40  1  0
 30 41  1  0
 29 42  1  1
 28 43  1  0
 28 44  1  0
  8 45  1  0
 45 46  2  0
 46 47  1  0
 47 48  1  0
 47 49  2  0
 49 50  1  0
 50 51  2  0
 51 52  1  0
 52 53  2  0
 50 54  1  0
 49 55  1  0
 46 56  1  0
  7 57  1  0
  7 58  1  0
  5 59  1  0
  5 60  1  0
  2 61  1  0
  1 62  1  0
  1 63  1  0
  1 64  1  0
 52  6  1  0
 29  8  1  0
 51 45  1  0
 21 12  1  0
 21 16  1  0
M  END
>  <cnnaffinities>  (28) 
[6.6679, 6.57272]

>  <score>  (28) 
6.6679

>  <index>  (28) 
28

>  <Smiles>  (28) 
C(N(C(=O)C(N1C([C@@]2(C(=O)N(c3c(nc(c4c(c(c(c(c34)[H])[H])[H])[H])[H])[H])C([C@@]2(C(S(=O)(=O)N(C([H])([H])[H])[H])([H])[H])[H])([H])[H])c2c(c(Cl)c(c(c2C1=O)[H])[H])[H])([H])[H])([H])[H])[H])([H])([H])[H]

>  <h>  (28) 
<NA>

>  <Training>  (28) 
True

>  <Success>  (28) 
True

>  <enamine_searched>  (28) 
False

>  <enamine_id>  (28) 
nan

$$$$

     RDKit          3D

 55 60  0  0  0  0  0  0  0  0999 V2000
   -7.8793   -3.6217  -24.0840 C   0  0  0  0  0  0  0  0  0  0  0  0
   -8.2896   -2.8525  -22.8195 C   0  0  1  0  0  0  0  0  0  0  0  0
   -7.0934   -2.6223  -21.8708 C   0  0  0  0  0  0  0  0  0  0  0  0
   -7.4089   -1.3785  -21.1979 N   0  0  0  0  0  0  0  0  0  0  0  0
   -6.6090   -0.8021  -20.1742 C   0  0  0  0  0  0  0  0  0  0  0  0
   -6.9058   -1.0487  -18.8598 C   0  0  0  0  0  0  0  0  0  0  0  0
   -6.1964   -0.5626  -17.8120 N   0  0  0  0  0  0  0  0  0  0  0  0
   -5.1689    0.2081  -18.0762 C   0  0  0  0  0  0  0  0  0  0  0  0
   -4.7412    0.5464  -19.3915 C   0  0  0  0  0  0  0  0  0  0  0  0
   -3.6120    1.3789  -19.6316 C   0  0  0  0  0  0  0  0  0  0  0  0
   -3.2263    1.6794  -20.9091 C   0  0  0  0  0  0  0  0  0  0  0  0
   -3.9579    1.1606  -21.9991 C   0  0  0  0  0  0  0  0  0  0  0  0
   -5.0439    0.3382  -21.7913 C   0  0  0  0  0  0  0  0  0  0  0  0
   -5.4777    0.0218  -20.4791 C   0  0  0  0  0  0  0  0  0  0  0  0
   -5.5645   -0.0767  -22.6487 H   0  0  0  0  0  0  0  0  0  0  0  0
   -3.6456    1.3710  -23.0154 H   0  0  0  0  0  0  0  0  0  0  0  0
   -2.3544    2.3000  -21.0946 H   0  0  0  0  0  0  0  0  0  0  0  0
   -3.0714    1.7711  -18.7747 H   0  0  0  0  0  0  0  0  0  0  0  0
   -4.6236    0.6118  -17.2226 H   0  0  0  0  0  0  0  0  0  0  0  0
   -7.7551   -1.6731  -18.5960 H   0  0  0  0  0  0  0  0  0  0  0  0
   -8.4113   -0.6456  -21.7940 C   0  0  0  0  0  0  0  0  0  0  0  0
   -8.7787    0.4347  -21.3871 O   0  0  0  0  0  0  0  0  0  0  0  0
   -8.9502   -1.4464  -23.0159 C   0  0  1  0  0  0  0  0  0  0  0  0
   -8.4864   -0.7993  -24.3459 C   0  0  0  0  0  0  0  0  0  0  0  0
   -9.1482    0.4561  -24.6221 N   0  0  0  0  0  0  0  0  0  0  0  0
   -8.3534    1.6316  -24.9499 C   0  0  0  0  0  0  0  0  0  0  0  0
   -8.0482    2.4971  -23.7542 C   0  0  0  0  0  0  0  0  0  0  0  0
   -8.8781    3.4281  -23.1131 C   0  0  0  0  0  0  0  0  0  0  0  0
   -8.2156    3.9620  -22.0920 N   0  0  0  0  0  0  0  0  0  0  0  0
   -7.0536    3.3535  -22.1332 N   0  0  0  0  0  0  0  0  0  0  0  0
   -6.8792    2.4733  -23.1058 N   0  0  0  0  0  0  0  0  0  0  0  0
   -6.3710    3.5134  -21.4030 H   0  0  0  0  0  0  0  0  0  0  0  0
   -9.9074    3.6960  -23.3243 H   0  0  0  0  0  0  0  0  0  0  0  0
   -7.4079    1.3055  -25.3974 H   0  0  0  0  0  0  0  0  0  0  0  0
   -8.9192    2.2070  -25.6873 H   0  0  0  0  0  0  0  0  0  0  0  0
  -10.5015    0.6053  -24.4881 C   0  0  0  0  0  0  0  0  0  0  0  0
  -11.1016    1.5888  -24.9085 O   0  0  0  0  0  0  0  0  0  0  0  0
  -11.1938   -0.4893  -23.7376 C   0  0  0  0  0  0  0  0  0  0  0  0
  -12.5883   -0.4674  -23.6976 C   0  0  0  0  0  0  0  0  0  0  0  0
  -13.2821   -1.3291  -22.8743 C   0  0  0  0  0  0  0  0  0  0  0  0
  -12.5465   -2.1887  -22.0682 C   0  0  0  0  0  0  0  0  0  0  0  0
  -13.2094   -2.9857  -21.2162 F   0  0  0  0  0  0  0  0  0  0  0  0
  -11.1699   -2.2463  -22.0993 C   0  0  0  0  0  0  0  0  0  0  0  0
  -10.4674   -1.4293  -22.9920 C   0  0  0  0  0  0  0  0  0  0  0  0
  -10.6717   -2.9038  -21.3959 H   0  0  0  0  0  0  0  0  0  0  0  0
  -14.3634   -1.3326  -22.8064 H   0  0  0  0  0  0  0  0  0  0  0  0
  -13.0966    0.2689  -24.3072 H   0  0  0  0  0  0  0  0  0  0  0  0
   -7.4149   -0.5858  -24.2686 H   0  0  0  0  0  0  0  0  0  0  0  0
   -8.6638   -1.5032  -25.1734 H   0  0  0  0  0  0  0  0  0  0  0  0
   -6.1462   -2.5513  -22.4299 H   0  0  0  0  0  0  0  0  0  0  0  0
   -6.9693   -3.4304  -21.1405 H   0  0  0  0  0  0  0  0  0  0  0  0
   -9.0296   -3.4542  -22.2875 H   0  0  0  0  0  0  0  0  0  0  0  0
   -7.4905   -4.6148  -23.8302 H   0  0  0  0  0  0  0  0  0  0  0  0
   -7.0873   -3.0971  -24.6329 H   0  0  0  0  0  0  0  0  0  0  0  0
   -8.7171   -3.7636  -24.7759 H   0  0  0  0  0  0  0  0  0  0  0  0
  1  2  1  0
  2  3  1  0
  3  4  1  0
  4  5  1  0
  5  6  2  0
  6  7  1  0
  7  8  2  0
  8  9  1  0
  9 10  2  0
 10 11  1  0
 11 12  2  0
 12 13  1  0
 13 14  2  0
 13 15  1  0
 12 16  1  0
 11 17  1  0
 10 18  1  0
  8 19  1  0
  6 20  1  0
  4 21  1  0
 21 22  2  0
 21 23  1  0
 23 24  1  6
 24 25  1  0
 25 26  1  0
 26 27  1  0
 27 28  1  0
 28 29  2  0
 29 30  1  0
 30 31  1  0
 30 32  1  0
 28 33  1  0
 26 34  1  0
 26 35  1  0
 25 36  1  0
 36 37  2  0
 36 38  1  0
 38 39  2  0
 39 40  1  0
 40 41  2  0
 41 42  1  0
 41 43  1  0
 43 44  2  0
 43 45  1  0
 40 46  1  0
 39 47  1  0
 24 48  1  0
 24 49  1  0
  3 50  1  0
  3 51  1  0
  2 52  1  1
  1 53  1  0
  1 54  1  0
  1 55  1  0
 23  2  1  0
 31 27  2  0
 44 38  1  0
 14  5  1  0
 44 23  1  0
 14  9  1  0
M  END
>  <cnnaffinities>  (29) 
[6.25338]

>  <score>  (29) 
6.25338

>  <index>  (29) 
29

>  <Smiles>  (29) 
C([C@]1(C(N(c2c(nc(c3c(c(c(c(c23)[H])[H])[H])[H])[H])[H])C(=O)[C@]21C(N(C(c1c(nn(n1)[H])[H])([H])[H])C(=O)c1c(c(c(F)c(c21)[H])[H])[H])([H])[H])([H])[H])[H])([H])([H])[H]

>  <h>  (29) 
<NA>

>  <Training>  (29) 
True

>  <Success>  (29) 
True

>  <enamine_searched>  (29) 
False

>  <enamine_id>  (29) 
nan

$$$$

     RDKit          3D

 58 63  0  0  0  0  0  0  0  0999 V2000
   -7.2731   -3.3715  -23.8896 C   0  0  0  0  0  0  0  0  0  0  0  0
   -8.2387   -2.8648  -22.8124 C   0  0  1  0  0  0  0  0  0  0  0  0
   -7.5605   -2.7565  -21.4307 C   0  0  0  0  0  0  0  0  0  0  0  0
   -7.3349   -1.3400  -21.2600 N   0  0  0  0  0  0  0  0  0  0  0  0
   -6.5840   -0.7991  -20.1992 C   0  0  0  0  0  0  0  0  0  0  0  0
   -6.8931   -1.0890  -18.8961 C   0  0  0  0  0  0  0  0  0  0  0  0
   -6.2199   -0.6019  -17.8271 N   0  0  0  0  0  0  0  0  0  0  0  0
   -5.2022    0.1908  -18.0712 C   0  0  0  0  0  0  0  0  0  0  0  0
   -4.7671    0.5539  -19.3798 C   0  0  0  0  0  0  0  0  0  0  0  0
   -3.6306    1.3740  -19.5949 C   0  0  0  0  0  0  0  0  0  0  0  0
   -3.2438    1.7002  -20.8653 C   0  0  0  0  0  0  0  0  0  0  0  0
   -3.9646    1.2254  -21.9810 C   0  0  0  0  0  0  0  0  0  0  0  0
   -5.0534    0.4125  -21.7992 C   0  0  0  0  0  0  0  0  0  0  0  0
   -5.4824    0.0580  -20.4882 C   0  0  0  0  0  0  0  0  0  0  0  0
   -5.5788    0.0106  -22.6602 H   0  0  0  0  0  0  0  0  0  0  0  0
   -3.6569    1.5163  -22.9810 H   0  0  0  0  0  0  0  0  0  0  0  0
   -2.3710    2.3241  -21.0258 H   0  0  0  0  0  0  0  0  0  0  0  0
   -3.0813    1.7290  -18.7288 H   0  0  0  0  0  0  0  0  0  0  0  0
   -4.6534    0.5816  -17.2142 H   0  0  0  0  0  0  0  0  0  0  0  0
   -7.7453   -1.7278  -18.6692 H   0  0  0  0  0  0  0  0  0  0  0  0
   -8.2052   -0.5608  -21.9898 C   0  0  0  0  0  0  0  0  0  0  0  0
   -8.3975    0.6190  -21.7994 O   0  0  0  0  0  0  0  0  0  0  0  0
   -8.8849   -1.4602  -23.0494 C   0  0  1  0  0  0  0  0  0  0  0  0
   -8.6379   -0.9141  -24.4708 C   0  0  0  0  0  0  0  0  0  0  0  0
   -9.2848    0.3601  -24.6758 N   0  0  0  0  0  0  0  0  0  0  0  0
   -8.5467    1.4444  -25.2907 C   0  0  0  0  0  0  0  0  0  0  0  0
   -8.1060    2.4911  -24.3016 C   0  0  0  0  0  0  0  0  0  0  0  0
   -6.8363    2.6132  -23.8236 C   0  0  0  0  0  0  0  0  0  0  0  0
   -6.4780    3.7075  -22.9475 C   0  0  0  0  0  0  0  0  0  0  0  0
   -5.3812    3.9726  -22.4929 O   0  0  0  0  0  0  0  0  0  0  0  0
   -7.5934    4.5133  -22.6306 N   0  0  0  0  0  0  0  0  0  0  0  0
   -8.8200    4.3485  -23.1917 C   0  0  0  0  0  0  0  0  0  0  0  0
   -9.1026    3.3884  -24.0055 N   0  0  0  0  0  0  0  0  0  0  0  0
   -9.5783    5.0898  -22.9397 H   0  0  0  0  0  0  0  0  0  0  0  0
   -7.4101    5.2699  -21.9838 H   0  0  0  0  0  0  0  0  0  0  0  0
   -6.0513    1.9197  -24.0840 H   0  0  0  0  0  0  0  0  0  0  0  0
   -9.2357    1.9739  -25.9345 H   0  0  0  0  0  0  0  0  0  0  0  0
   -7.7248    1.0285  -25.8863 H   0  0  0  0  0  0  0  0  0  0  0  0
  -10.6122    0.5252  -24.3938 C   0  0  0  0  0  0  0  0  0  0  0  0
  -11.2844    1.4513  -24.8204 O   0  0  0  0  0  0  0  0  0  0  0  0
  -11.2001   -0.5006  -23.4781 C   0  0  0  0  0  0  0  0  0  0  0  0
  -12.5717   -0.4326  -23.2349 C   0  0  0  0  0  0  0  0  0  0  0  0
  -13.1787   -1.3263  -22.3766 C   0  0  0  0  0  0  0  0  0  0  0  0
  -12.3662   -2.2716  -21.7598 C   0  0  0  0  0  0  0  0  0  0  0  0
  -12.9340   -3.1904  -20.9672 F   0  0  0  0  0  0  0  0  0  0  0  0
  -10.9983   -2.3225  -21.9360 C   0  0  0  0  0  0  0  0  0  0  0  0
  -10.3938   -1.4462  -22.8365 C   0  0  0  0  0  0  0  0  0  0  0  0
  -10.4264   -3.0313  -21.3491 H   0  0  0  0  0  0  0  0  0  0  0  0
  -14.2383   -1.2789  -22.1447 H   0  0  0  0  0  0  0  0  0  0  0  0
  -13.1245    0.3516  -23.7396 H   0  0  0  0  0  0  0  0  0  0  0  0
   -9.0182   -1.6596  -25.1846 H   0  0  0  0  0  0  0  0  0  0  0  0
   -7.5734   -0.7695  -24.6500 H   0  0  0  0  0  0  0  0  0  0  0  0
   -6.6093   -3.2951  -21.3744 H   0  0  0  0  0  0  0  0  0  0  0  0
   -8.2247   -3.1384  -20.6452 H   0  0  0  0  0  0  0  0  0  0  0  0
   -9.0434   -3.6037  -22.7772 H   0  0  0  0  0  0  0  0  0  0  0  0
   -6.8965   -4.3575  -23.6014 H   0  0  0  0  0  0  0  0  0  0  0  0
   -6.4148   -2.7070  -24.0312 H   0  0  0  0  0  0  0  0  0  0  0  0
   -7.7833   -3.4902  -24.8498 H   0  0  0  0  0  0  0  0  0  0  0  0
  1  2  1  0
  2  3  1  0
  3  4  1  0
  4  5  1  0
  5  6  2  0
  6  7  1  0
  7  8  2  0
  8  9  1  0
  9 10  2  0
 10 11  1  0
 11 12  2  0
 12 13  1  0
 13 14  2  0
 13 15  1  0
 12 16  1  0
 11 17  1  0
 10 18  1  0
  8 19  1  0
  6 20  1  0
  4 21  1  0
 21 22  2  0
 21 23  1  0
 23 24  1  6
 24 25  1  0
 25 26  1  0
 26 27  1  0
 27 28  2  0
 28 29  1  0
 29 30  2  0
 29 31  1  0
 31 32  1  0
 32 33  2  0
 32 34  1  0
 31 35  1  0
 28 36  1  0
 26 37  1  0
 26 38  1  0
 25 39  1  0
 39 40  2  0
 39 41  1  0
 41 42  2  0
 42 43  1  0
 43 44  2  0
 44 45  1  0
 44 46  1  0
 46 47  2  0
 46 48  1  0
 43 49  1  0
 42 50  1  0
 24 51  1  0
 24 52  1  0
  3 53  1  0
  3 54  1  0
  2 55  1  1
  1 56  1  0
  1 57  1  0
  1 58  1  0
 23  2  1  0
 33 27  1  0
 47 41  1  0
 14  5  1  0
 47 23  1  0
 14  9  1  0
M  END
>  <cnnaffinities>  (30) 
[6.40327]

>  <score>  (30) 
6.40327

>  <index>  (30) 
30

>  <Smiles>  (30) 
C([C@]1(C(N(c2c(nc(c3c(c(c(c(c23)[H])[H])[H])[H])[H])[H])C(=O)[C@]21C(N(C(c1c(c(=O)n(c(n1)[H])[H])[H])([H])[H])C(=O)c1c(c(c(F)c(c21)[H])[H])[H])([H])[H])([H])[H])[H])([H])([H])[H]

>  <h>  (30) 
<NA>

>  <Training>  (30) 
True

>  <Success>  (30) 
True

>  <enamine_searched>  (30) 
False

>  <enamine_id>  (30) 
nan

$$$$

     RDKit          3D

 66 71  0  0  0  0  0  0  0  0999 V2000
   -8.5796    2.7679  -28.4196 C   0  0  0  0  0  0  0  0  0  0  0  0
   -8.6247    2.7799  -26.9668 N   0  0  0  0  0  0  0  0  0  0  0  0
   -7.9148    1.8216  -26.2915 C   0  0  0  0  0  0  0  0  0  0  0  0
   -7.1079    1.0756  -26.8165 O   0  0  0  0  0  0  0  0  0  0  0  0
   -8.2022    1.7881  -24.7868 C   0  0  0  0  0  0  0  0  0  0  0  0
   -9.0286    0.6611  -24.4075 N   0  0  0  0  0  0  0  0  0  0  0  0
   -8.4481   -0.6593  -24.2431 C   0  0  0  0  0  0  0  0  0  0  0  0
   -9.0060   -1.3562  -22.9701 C   0  0  2  0  0  0  0  0  0  0  0  0
   -8.4870   -0.6246  -21.7076 C   0  0  0  0  0  0  0  0  0  0  0  0
   -8.9171    0.3899  -21.2087 O   0  0  0  0  0  0  0  0  0  0  0  0
   -7.4124   -1.3347  -21.2175 N   0  0  0  0  0  0  0  0  0  0  0  0
   -6.6208   -0.7914  -20.1754 C   0  0  0  0  0  0  0  0  0  0  0  0
   -6.9301   -1.0569  -18.8677 C   0  0  0  0  0  0  0  0  0  0  0  0
   -6.2267   -0.5920  -17.8052 N   0  0  0  0  0  0  0  0  0  0  0  0
   -5.1944    0.1765  -18.0557 C   0  0  0  0  0  0  0  0  0  0  0  0
   -4.7722    0.5431  -19.3656 C   0  0  0  0  0  0  0  0  0  0  0  0
   -3.6534    1.3874  -19.5873 C   0  0  0  0  0  0  0  0  0  0  0  0
   -3.2892    1.7355  -20.8587 C   0  0  0  0  0  0  0  0  0  0  0  0
   -4.0279    1.2635  -21.9662 C   0  0  0  0  0  0  0  0  0  0  0  0
   -5.1057    0.4340  -21.7797 C   0  0  0  0  0  0  0  0  0  0  0  0
   -5.5043    0.0524  -20.4678 C   0  0  0  0  0  0  0  0  0  0  0  0
   -5.6485    0.0548  -22.6413 H   0  0  0  0  0  0  0  0  0  0  0  0
   -3.7275    1.5376  -22.9727 H   0  0  0  0  0  0  0  0  0  0  0  0
   -2.4309    2.3792  -21.0286 H   0  0  0  0  0  0  0  0  0  0  0  0
   -3.1058    1.7540  -18.7240 H   0  0  0  0  0  0  0  0  0  0  0  0
   -4.6309    0.5541  -17.2013 H   0  0  0  0  0  0  0  0  0  0  0  0
   -7.7936   -1.6777  -18.6354 H   0  0  0  0  0  0  0  0  0  0  0  0
   -7.0879   -2.5395  -21.9599 C   0  0  0  0  0  0  0  0  0  0  0  0
   -8.4044   -2.7969  -22.7512 C   0  0  2  0  0  0  0  0  0  0  0  0
   -8.2741   -3.6573  -24.0243 C   0  0  0  0  0  0  0  0  0  0  0  0
   -7.6169   -4.9213  -23.8649 N   0  0  0  0  0  0  0  0  0  0  0  0
   -8.3374   -6.0447  -23.6169 C   0  0  0  0  0  0  0  0  0  0  0  0
   -9.8507   -5.9325  -23.8237 C   0  0  0  0  0  0  0  0  0  0  0  0
   -9.6880   -5.7390  -23.8598 C   0  0  0  0  0  0  0  0  0  0  0  0
   -9.6313   -8.4563  -23.3508 N   0  0  0  0  0  0  0  0  0  0  0  0
   -8.3990   -8.3117  -23.2310 C   0  0  0  0  0  0  0  0  0  0  0  0
   -7.6530   -7.0840  -23.2875 N   0  0  0  0  0  0  0  0  0  0  0  0
   -7.7360   -9.1814  -23.0812 H   0  0  0  0  0  0  0  0  0  0  0  0
  -10.2265   -5.4834  -24.8637 H   0  0  0  0  0  0  0  0  0  0  0  0
  -10.5272   -5.0231  -23.3916 H   0  0  0  0  0  0  0  0  0  0  0  0
   -6.6531   -4.9522  -23.5889 H   0  0  0  0  0  0  0  0  0  0  0  0
   -7.6606   -3.0709  -24.7340 H   0  0  0  0  0  0  0  0  0  0  0  0
   -9.2305   -3.7713  -24.5082 H   0  0  0  0  0  0  0  0  0  0  0  0
   -9.0521   -3.2855  -22.0234 H   0  0  0  0  0  0  0  0  0  0  0  0
   -6.2069   -2.4088  -22.6110 H   0  0  0  0  0  0  0  0  0  0  0  0
   -6.8407   -3.3316  -21.2431 H   0  0  0  0  0  0  0  0  0  0  0  0
  -10.5251   -1.2686  -23.0272 C   0  0  0  0  0  0  0  0  0  0  0  0
  -11.3243   -2.1409  -22.2696 C   0  0  0  0  0  0  0  0  0  0  0  0
  -12.7022   -2.0005  -22.2798 C   0  0  0  0  0  0  0  0  0  0  0  0
  -13.6660   -3.0011  -21.2308 Cl  0  0  0  0  0  0  0  0  0  0  0  0
  -13.3402   -1.0505  -23.0761 C   0  0  0  0  0  0  0  0  0  0  0  0
  -12.5600   -0.1810  -23.8109 C   0  0  0  0  0  0  0  0  0  0  0  0
  -11.1683   -0.2611  -23.7629 C   0  0  0  0  0  0  0  0  0  0  0  0
  -10.3826    0.8270  -24.4306 C   0  0  0  0  0  0  0  0  0  0  0  0
  -10.9153    1.8210  -24.9177 O   0  0  0  0  0  0  0  0  0  0  0  0
  -13.0063    0.6027  -24.4123 H   0  0  0  0  0  0  0  0  0  0  0  0
  -14.4230   -0.9828  -23.0881 H   0  0  0  0  0  0  0  0  0  0  0  0
  -10.8980   -2.8949  -21.6165 H   0  0  0  0  0  0  0  0  0  0  0  0
   -8.6835   -1.2622  -25.1292 H   0  0  0  0  0  0  0  0  0  0  0  0
   -7.3590   -0.5566  -24.2002 H   0  0  0  0  0  0  0  0  0  0  0  0
   -8.7231    2.6989  -24.4826 H   0  0  0  0  0  0  0  0  0  0  0  0
   -7.2562    1.7322  -24.2375 H   0  0  0  0  0  0  0  0  0  0  0  0
   -9.5379    2.9516  -26.5591 H   0  0  0  0  0  0  0  0  0  0  0  0
   -7.5738    3.0348  -28.7490 H   0  0  0  0  0  0  0  0  0  0  0  0
   -9.2896    3.5054  -28.8017 H   0  0  0  0  0  0  0  0  0  0  0  0
   -8.8233    1.7835  -28.8422 H   0  0  0  0  0  0  0  0  0  0  0  0
  1  2  1  0
  2  3  1  0
  3  4  2  0
  3  5  1  0
  5  6  1  0
  6  7  1  0
  8  7  1  6
  8  9  1  0
  9 10  2  0
  9 11  1  0
 11 12  1  0
 12 13  2  0
 13 14  1  0
 14 15  2  0
 15 16  1  0
 16 17  2  0
 17 18  1  0
 18 19  2  0
 19 20  1  0
 20 21  2  0
 20 22  1  0
 19 23  1  0
 18 24  1  0
 17 25  1  0
 15 26  1  0
 13 27  1  0
 11 28  1  0
 28 29  1  0
 29 30  1  0
 30 31  1  0
 31 32  1  0
 32 33  2  0
 33 34  1  0
 34 35  2  0
 35 36  1  0
 36 37  2  0
 36 38  1  0
 34 39  1  0
 33 40  1  0
 31 41  1  0
 30 42  1  0
 30 43  1  0
 29 44  1  1
 28 45  1  0
 28 46  1  0
  8 47  1  0
 47 48  2  0
 48 49  1  0
 49 50  1  0
 49 51  2  0
 51 52  1  0
 52 53  2  0
 53 54  1  0
 54 55  2  0
 52 56  1  0
 51 57  1  0
 48 58  1  0
  7 59  1  0
  7 60  1  0
  5 61  1  0
  5 62  1  0
  2 63  1  0
  1 64  1  0
  1 65  1  0
  1 66  1  0
 54  6  1  0
 29  8  1  0
 37 32  1  0
 53 47  1  0
 21 12  1  0
 21 16  1  0
M  END
>  <cnnaffinities>  (31) 
[6.81324]

>  <score>  (31) 
6.81324

>  <index>  (31) 
31

>  <Smiles>  (31) 
C(N(C(=O)C(N1C([C@@]2(C(=O)N(c3c(nc(c4c(c(c(c(c34)[H])[H])[H])[H])[H])[H])C([C@@]2(C(N(c2c(c(nc(n2)[H])[H])[H])[H])([H])[H])[H])([H])[H])c2c(c(Cl)c(c(c2C1=O)[H])[H])[H])([H])[H])([H])[H])[H])([H])([H])[H]

>  <h>  (31) 
<NA>

>  <Training>  (31) 
True

>  <Success>  (31) 
True

>  <enamine_searched>  (31) 
False

>  <enamine_id>  (31) 
nan

$$$$

     RDKit          3D

 57 62  0  0  0  0  0  0  0  0999 V2000
  -10.2134   -2.9734  -22.0767 C   0  0  0  0  0  0  0  0  0  0  0  0
   -9.1448   -2.0237  -22.6334 C   0  0  1  0  0  0  0  0  0  0  0  0
   -8.6762   -1.0429  -21.5430 C   0  0  0  0  0  0  0  0  0  0  0  0
   -7.3415   -1.4681  -21.2032 N   0  0  0  0  0  0  0  0  0  0  0  0
   -6.5738   -0.8542  -20.1888 C   0  0  0  0  0  0  0  0  0  0  0  0
   -6.9106   -1.0620  -18.8749 C   0  0  0  0  0  0  0  0  0  0  0  0
   -6.2259   -0.5626  -17.8196 N   0  0  0  0  0  0  0  0  0  0  0  0
   -5.1911    0.2015  -18.0848 C   0  0  0  0  0  0  0  0  0  0  0  0
   -4.7583    0.5273  -19.4039 C   0  0  0  0  0  0  0  0  0  0  0  0
   -3.6359    1.3690  -19.6245 C   0  0  0  0  0  0  0  0  0  0  0  0
   -3.2593    1.7011  -20.8976 C   0  0  0  0  0  0  0  0  0  0  0  0
   -3.9963    1.2225  -22.0037 C   0  0  0  0  0  0  0  0  0  0  0  0
   -5.0730    0.3864  -21.8220 C   0  0  0  0  0  0  0  0  0  0  0  0
   -5.4716    0.0049  -20.5039 C   0  0  0  0  0  0  0  0  0  0  0  0
   -5.6083    0.0036  -22.6918 H   0  0  0  0  0  0  0  0  0  0  0  0
   -3.6851    1.4836  -23.0122 H   0  0  0  0  0  0  0  0  0  0  0  0
   -2.3879    2.3277  -21.0700 H   0  0  0  0  0  0  0  0  0  0  0  0
   -3.0881    1.7347  -18.7610 H   0  0  0  0  0  0  0  0  0  0  0  0
   -4.6361    0.6104  -17.2399 H   0  0  0  0  0  0  0  0  0  0  0  0
   -7.7670   -1.6947  -18.6369 H   0  0  0  0  0  0  0  0  0  0  0  0
   -6.8212   -2.4181  -22.0423 C   0  0  0  0  0  0  0  0  0  0  0  0
   -5.7340   -2.9424  -21.9019 O   0  0  0  0  0  0  0  0  0  0  0  0
   -7.8414   -2.6905  -23.1606 C   0  0  1  0  0  0  0  0  0  0  0  0
   -7.9868   -4.2076  -23.3800 C   0  0  0  0  0  0  0  0  0  0  0  0
   -6.8030   -4.7814  -24.0019 N   0  0  0  0  0  0  0  0  0  0  0  0
   -6.2333   -5.9700  -23.3862 C   0  0  0  0  0  0  0  0  0  0  0  0
   -7.2423   -7.0734  -23.4456 C   0  0  0  0  0  0  0  0  0  0  0  0
   -8.0156   -7.4833  -22.4671 N   0  0  0  0  0  0  0  0  0  0  0  0
   -8.9554   -8.2643  -23.0425 N   0  0  0  0  0  0  0  0  0  0  0  0
   -8.7758   -8.3431  -24.3101 N   0  0  0  0  0  0  0  0  0  0  0  0
   -7.6966   -7.5975  -24.5969 N   0  0  0  0  0  0  0  0  0  0  0  0
   -7.1786   -7.4894  -25.9461 C   0  0  0  0  0  0  0  0  0  0  0  0
   -7.4830   -6.5571  -26.4209 H   0  0  0  0  0  0  0  0  0  0  0  0
   -6.0905   -7.5323  -25.9404 H   0  0  0  0  0  0  0  0  0  0  0  0
   -7.5624   -8.3263  -26.5246 H   0  0  0  0  0  0  0  0  0  0  0  0
   -5.9912   -5.7406  -22.3397 H   0  0  0  0  0  0  0  0  0  0  0  0
   -5.3155   -6.1844  -23.9397 H   0  0  0  0  0  0  0  0  0  0  0  0
   -6.2139   -4.2294  -25.0984 C   0  0  0  0  0  0  0  0  0  0  0  0
   -5.3968   -4.8230  -25.7972 O   0  0  0  0  0  0  0  0  0  0  0  0
   -6.6004   -2.8160  -25.3806 C   0  0  0  0  0  0  0  0  0  0  0  0
   -6.1260   -2.2605  -26.5670 C   0  0  0  0  0  0  0  0  0  0  0  0
   -6.3638   -0.9283  -26.8479 C   0  0  0  0  0  0  0  0  0  0  0  0
   -7.0675   -0.1715  -25.9157 C   0  0  0  0  0  0  0  0  0  0  0  0
   -7.2773    1.1349  -26.1689 F   0  0  0  0  0  0  0  0  0  0  0  0
   -7.5542   -0.7074  -24.7374 C   0  0  0  0  0  0  0  0  0  0  0  0
   -7.3439   -2.0659  -24.4618 C   0  0  0  0  0  0  0  0  0  0  0  0
   -8.0987   -0.0558  -24.0598 H   0  0  0  0  0  0  0  0  0  0  0  0
   -5.9982   -0.4502  -27.7484 H   0  0  0  0  0  0  0  0  0  0  0  0
   -5.5587   -2.9128  -27.2274 H   0  0  0  0  0  0  0  0  0  0  0  0
   -8.8560   -4.3891  -24.0255 H   0  0  0  0  0  0  0  0  0  0  0  0
   -8.1375   -4.7140  -22.4232 H   0  0  0  0  0  0  0  0  0  0  0  0
   -8.6711    0.0001  -21.8796 H   0  0  0  0  0  0  0  0  0  0  0  0
   -9.3260   -1.0965  -20.6752 H   0  0  0  0  0  0  0  0  0  0  0  0
   -9.6152   -1.4890  -23.4635 H   0  0  0  0  0  0  0  0  0  0  0  0
  -10.5957   -3.6524  -22.8443 H   0  0  0  0  0  0  0  0  0  0  0  0
  -11.0658   -2.3984  -21.7006 H   0  0  0  0  0  0  0  0  0  0  0  0
   -9.8230   -3.5708  -21.2462 H   0  0  0  0  0  0  0  0  0  0  0  0
  1  2  1  0
  2  3  1  0
  3  4  1  0
  4  5  1  0
  5  6  2  0
  6  7  1  0
  7  8  2  0
  8  9  1  0
  9 10  2  0
 10 11  1  0
 11 12  2  0
 12 13  1  0
 13 14  2  0
 13 15  1  0
 12 16  1  0
 11 17  1  0
 10 18  1  0
  8 19  1  0
  6 20  1  0
  4 21  1  0
 21 22  2  0
 21 23  1  0
 23 24  1  6
 24 25  1  0
 25 26  1  0
 26 27  1  0
 27 28  2  0
 28 29  1  0
 29 30  2  0
 30 31  1  0
 31 32  1  0
 32 33  1  0
 32 34  1  0
 32 35  1  0
 26 36  1  0
 26 37  1  0
 25 38  1  0
 38 39  2  0
 38 40  1  0
 40 41  2  0
 41 42  1  0
 42 43  2  0
 43 44  1  0
 43 45  1  0
 45 46  2  0
 45 47  1  0
 42 48  1  0
 41 49  1  0
 24 50  1  0
 24 51  1  0
  3 52  1  0
  3 53  1  0
  2 54  1  6
  1 55  1  0
  1 56  1  0
  1 57  1  0
 23  2  1  0
 31 27  1  0
 46 40  1  0
 14  5  1  0
 46 23  1  0
 14  9  1  0
M  END
>  <cnnaffinities>  (32) 
[5.71193]

>  <score>  (32) 
5.71193

>  <index>  (32) 
32

>  <Smiles>  (32) 
C([C@]1(C(N(c2c(nc(c3c(c(c(c(c23)[H])[H])[H])[H])[H])[H])C(=O)[C@]21C(N(C(c1nnnn1C([H])([H])[H])([H])[H])C(=O)c1c(c(c(F)c(c21)[H])[H])[H])([H])[H])([H])[H])[H])([H])([H])[H]

>  <h>  (32) 
<NA>

>  <Training>  (32) 
True

>  <Success>  (32) 
True

>  <enamine_searched>  (32) 
False

>  <enamine_id>  (32) 
nan

$$$$

     RDKit          3D

 66 70  0  0  0  0  0  0  0  0999 V2000
   -7.3536    3.4227  -21.9018 C   0  0  0  0  0  0  0  0  0  0  0  0
   -8.3090    2.9295  -22.8821 N   0  0  0  0  0  0  0  0  0  0  0  0
   -7.8011    2.2313  -23.9382 C   0  0  0  0  0  0  0  0  0  0  0  0
   -6.6012    2.0615  -24.0771 O   0  0  0  0  0  0  0  0  0  0  0  0
   -8.8137    1.6475  -24.9258 C   0  0  0  0  0  0  0  0  0  0  0  0
   -9.4629    0.4863  -24.3432 N   0  0  0  0  0  0  0  0  0  0  0  0
   -8.6979   -0.7414  -24.1626 C   0  0  0  0  0  0  0  0  0  0  0  0
   -9.0957   -1.4986  -22.8678 C   0  0  2  0  0  0  0  0  0  0  0  0
   -8.5729   -0.7454  -21.6216 C   0  0  0  0  0  0  0  0  0  0  0  0
   -9.0521    0.2360  -21.0893 O   0  0  0  0  0  0  0  0  0  0  0  0
   -7.4199   -1.3624  -21.1948 N   0  0  0  0  0  0  0  0  0  0  0  0
   -6.6309   -0.7881  -20.1675 C   0  0  0  0  0  0  0  0  0  0  0  0
   -6.9367   -1.0409  -18.8553 C   0  0  0  0  0  0  0  0  0  0  0  0
   -6.2321   -0.5705  -17.7989 N   0  0  0  0  0  0  0  0  0  0  0  0
   -5.1949    0.1895  -18.0590 C   0  0  0  0  0  0  0  0  0  0  0  0
   -4.7718    0.5420  -19.3732 C   0  0  0  0  0  0  0  0  0  0  0  0
   -3.6445    1.3746  -19.6061 C   0  0  0  0  0  0  0  0  0  0  0  0
   -3.2838    1.7176  -20.8811 C   0  0  0  0  0  0  0  0  0  0  0  0
   -4.0393    1.2577  -21.9825 C   0  0  0  0  0  0  0  0  0  0  0  0
   -5.1253    0.4359  -21.7856 C   0  0  0  0  0  0  0  0  0  0  0  0
   -5.5157    0.0506  -20.4730 C   0  0  0  0  0  0  0  0  0  0  0  0
   -5.6919    0.0894  -22.6445 H   0  0  0  0  0  0  0  0  0  0  0  0
   -3.7574    1.5392  -22.9926 H   0  0  0  0  0  0  0  0  0  0  0  0
   -2.4145    2.3453  -21.0547 H   0  0  0  0  0  0  0  0  0  0  0  0
   -3.0881    1.7367  -18.7460 H   0  0  0  0  0  0  0  0  0  0  0  0
   -4.6303    0.5723  -17.2080 H   0  0  0  0  0  0  0  0  0  0  0  0
   -7.7958   -1.6646  -18.6219 H   0  0  0  0  0  0  0  0  0  0  0  0
   -7.0470   -2.5357  -21.9588 C   0  0  0  0  0  0  0  0  0  0  0  0
   -8.3316   -2.8581  -22.7379 C   0  0  2  0  0  0  0  0  0  0  0  0
   -8.0644   -3.6442  -24.0215 C   0  0  0  0  0  0  0  0  0  0  0  0
   -9.2726   -4.1191  -24.5819 O   0  0  0  0  0  0  0  0  0  0  0  0
   -9.5478   -5.5035  -24.3596 C   0  0  0  0  0  0  0  0  0  0  0  0
  -11.0541   -5.6994  -24.3427 C   0  0  0  0  0  0  0  0  0  0  0  0
  -11.2995   -6.7089  -23.9882 H   0  0  0  0  0  0  0  0  0  0  0  0
  -11.5454   -4.9782  -23.6816 H   0  0  0  0  0  0  0  0  0  0  0  0
  -11.4527   -5.5923  -25.3558 H   0  0  0  0  0  0  0  0  0  0  0  0
   -8.9114   -6.3649  -25.4485 C   0  0  0  0  0  0  0  0  0  0  0  0
   -9.2964   -7.3890  -25.3765 H   0  0  0  0  0  0  0  0  0  0  0  0
   -7.8184   -6.3995  -25.3777 H   0  0  0  0  0  0  0  0  0  0  0  0
   -9.1873   -5.9644  -26.4301 H   0  0  0  0  0  0  0  0  0  0  0  0
   -9.1615   -5.7937  -23.3697 H   0  0  0  0  0  0  0  0  0  0  0  0
   -7.3561   -4.4673  -23.8200 H   0  0  0  0  0  0  0  0  0  0  0  0
   -7.5823   -2.9972  -24.7652 H   0  0  0  0  0  0  0  0  0  0  0  0
   -8.9427   -3.4998  -22.0991 H   0  0  0  0  0  0  0  0  0  0  0  0
   -6.1970   -2.3315  -22.6308 H   0  0  0  0  0  0  0  0  0  0  0  0
   -6.7468   -3.3525  -21.2906 H   0  0  0  0  0  0  0  0  0  0  0  0
  -10.6089   -1.5805  -22.8231 C   0  0  0  0  0  0  0  0  0  0  0  0
  -11.2352   -2.4372  -21.9062 C   0  0  0  0  0  0  0  0  0  0  0  0
  -12.6127   -2.4077  -21.7622 C   0  0  0  0  0  0  0  0  0  0  0  0
  -13.3834   -3.2464  -20.4464 Cl  0  0  0  0  0  0  0  0  0  0  0  0
  -13.4100   -1.6242  -22.5962 C   0  0  0  0  0  0  0  0  0  0  0  0
  -12.7987   -0.7736  -23.4930 C   0  0  0  0  0  0  0  0  0  0  0  0
  -11.4111   -0.6910  -23.5524 C   0  0  0  0  0  0  0  0  0  0  0  0
  -10.8276    0.4795  -24.2818 C   0  0  0  0  0  0  0  0  0  0  0  0
  -11.5191    1.3798  -24.7436 O   0  0  0  0  0  0  0  0  0  0  0  0
  -13.3646   -0.0932  -24.1162 H   0  0  0  0  0  0  0  0  0  0  0  0
  -14.4863   -1.6299  -22.4776 H   0  0  0  0  0  0  0  0  0  0  0  0
  -10.6492   -3.0966  -21.2766 H   0  0  0  0  0  0  0  0  0  0  0  0
   -8.8687   -1.4226  -25.0078 H   0  0  0  0  0  0  0  0  0  0  0  0
   -7.6333   -0.4886  -24.1499 H   0  0  0  0  0  0  0  0  0  0  0  0
   -9.6098    2.3541  -25.1851 H   0  0  0  0  0  0  0  0  0  0  0  0
   -8.2800    1.3833  -25.8464 H   0  0  0  0  0  0  0  0  0  0  0  0
   -9.2454    2.7264  -22.5583 H   0  0  0  0  0  0  0  0  0  0  0  0
   -6.7865    2.5807  -21.4791 H   0  0  0  0  0  0  0  0  0  0  0  0
   -6.6550    4.1182  -22.3752 H   0  0  0  0  0  0  0  0  0  0  0  0
   -7.8792    3.9808  -21.1255 H   0  0  0  0  0  0  0  0  0  0  0  0
  1  2  1  0
  2  3  1  0
  3  4  2  0
  3  5  1  0
  5  6  1  0
  6  7  1  0
  8  7  1  6
  8  9  1  0
  9 10  2  0
  9 11  1  0
 11 12  1  0
 12 13  2  0
 13 14  1  0
 14 15  2  0
 15 16  1  0
 16 17  2  0
 17 18  1  0
 18 19  2  0
 19 20  1  0
 20 21  2  0
 20 22  1  0
 19 23  1  0
 18 24  1  0
 17 25  1  0
 15 26  1  0
 13 27  1  0
 11 28  1  0
 28 29  1  0
 29 30  1  0
 30 31  1  0
 31 32  1  0
 32 33  1  0
 33 34  1  0
 33 35  1  0
 33 36  1  0
 32 37  1  0
 37 38  1  0
 37 39  1  0
 37 40  1  0
 32 41  1  0
 30 42  1  0
 30 43  1  0
 29 44  1  1
 28 45  1  0
 28 46  1  0
  8 47  1  0
 47 48  2  0
 48 49  1  0
 49 50  1  0
 49 51  2  0
 51 52  1  0
 52 53  2  0
 53 54  1  0
 54 55  2  0
 52 56  1  0
 51 57  1  0
 48 58  1  0
  7 59  1  0
  7 60  1  0
  5 61  1  0
  5 62  1  0
  2 63  1  0
  1 64  1  0
  1 65  1  0
  1 66  1  0
 54  6  1  0
 29  8  1  0
 53 47  1  0
 21 12  1  0
 21 16  1  0
M  END
>  <cnnaffinities>  (33) 
[6.45621, 6.15143]

>  <score>  (33) 
6.45621

>  <index>  (33) 
34

>  <Smiles>  (33) 
C(N(C(=O)C(N1C([C@@]2(C(=O)N(c3c(nc(c4c(c(c(c(c34)[H])[H])[H])[H])[H])[H])C([C@@]2(C(OC(C([H])([H])[H])(C([H])([H])[H])[H])([H])[H])[H])([H])[H])c2c(c(Cl)c(c(c2C1=O)[H])[H])[H])([H])[H])([H])[H])[H])([H])([H])[H]

>  <h>  (33) 
<NA>

>  <Training>  (33) 
True

>  <Success>  (33) 
True

>  <enamine_searched>  (33) 
False

>  <enamine_id>  (33) 
nan

$$$$

     RDKit          3D

 40 42  0  0  0  0  0  0  0  0999 V2000
   -9.2908   -1.7901  -22.6039 O   0  0  0  0  0  0  0  0  0  0  0  0
   -8.4427   -0.9870  -22.2385 C   0  0  0  0  0  0  0  0  0  0  0  0
   -7.0943   -1.4826  -21.6788 C   0  0  0  0  0  0  0  0  0  0  0  0
   -6.4824   -0.7604  -20.4861 C   0  0  0  0  0  0  0  0  0  0  0  0
   -6.9843   -0.9684  -19.2250 C   0  0  0  0  0  0  0  0  0  0  0  0
   -6.4302   -0.5156  -18.0693 N   0  0  0  0  0  0  0  0  0  0  0  0
   -5.3422    0.2107  -18.1662 C   0  0  0  0  0  0  0  0  0  0  0  0
   -4.7336    0.5745  -19.3980 C   0  0  0  0  0  0  0  0  0  0  0  0
   -3.6232    1.4607  -19.4669 C   0  0  0  0  0  0  0  0  0  0  0  0
   -3.1335    1.8792  -20.6744 C   0  0  0  0  0  0  0  0  0  0  0  0
   -3.6995    1.3747  -21.8608 C   0  0  0  0  0  0  0  0  0  0  0  0
   -4.7300    0.4632  -21.8138 C   0  0  0  0  0  0  0  0  0  0  0  0
   -5.3154    0.0679  -20.5881 C   0  0  0  0  0  0  0  0  0  0  0  0
   -5.0492   -0.0023  -22.7437 H   0  0  0  0  0  0  0  0  0  0  0  0
   -3.3214    1.7036  -22.8225 H   0  0  0  0  0  0  0  0  0  0  0  0
   -2.3312    2.6089  -20.7348 H   0  0  0  0  0  0  0  0  0  0  0  0
   -3.1977    1.8379  -18.5415 H   0  0  0  0  0  0  0  0  0  0  0  0
   -4.9006    0.5727  -17.2378 H   0  0  0  0  0  0  0  0  0  0  0  0
   -7.9013   -1.5493  -19.0998 H   0  0  0  0  0  0  0  0  0  0  0  0
   -7.2880   -2.5318  -21.4407 H   0  0  0  0  0  0  0  0  0  0  0  0
   -6.3863   -1.4954  -22.5072 H   0  0  0  0  0  0  0  0  0  0  0  0
   -8.5467    0.3816  -22.3021 N   0  0  0  0  0  0  0  0  0  0  0  0
   -7.5918    1.1719  -23.0835 C   0  0  0  0  0  0  0  0  0  0  0  0
   -8.1183    2.4447  -23.6800 C   0  0  0  0  0  0  0  0  0  0  0  0
   -9.3720    2.8648  -23.5866 C   0  0  0  0  0  0  0  0  0  0  0  0
   -8.5073    5.2584  -22.5715 C   0  0  0  0  0  0  0  0  0  0  0  0
   -7.6711    5.0124  -21.5801 F   0  0  0  0  0  0  0  0  0  0  0  0
   -9.3223    6.2405  -22.2531 F   0  0  0  0  0  0  0  0  0  0  0  0
   -7.8379    5.5393  -23.6792 F   0  0  0  0  0  0  0  0  0  0  0  0
   -9.7620    1.1376  -21.8873 C   0  0  0  0  0  0  0  0  0  0  0  0
   -9.7701    0.9920  -21.6906 C   0  0  0  0  0  0  0  0  0  0  0  0
  -10.5218    0.5224  -22.6078 H   0  0  0  0  0  0  0  0  0  0  0  0
   -9.8895    0.1615  -20.3424 H   0  0  0  0  0  0  0  0  0  0  0  0
  -10.7248    1.8389  -21.6865 H   0  0  0  0  0  0  0  0  0  0  0  0
   -9.1027    2.0565  -21.4428 H   0  0  0  0  0  0  0  0  0  0  0  0
   -9.5976    3.8962  -23.3426 H   0  0  0  0  0  0  0  0  0  0  0  0
   -7.3339    3.0251  -24.1606 H   0  0  0  0  0  0  0  0  0  0  0  0
  -10.1682    2.1502  -23.6703 H   0  0  0  0  0  0  0  0  0  0  0  0
   -7.2197    0.5242  -23.8785 H   0  0  0  0  0  0  0  0  0  0  0  0
   -6.7491    1.4113  -22.4323 H   0  0  0  0  0  0  0  0  0  0  0  0
  1  2  2  0
  2  3  1  0
  3  4  1  0
  4  5  2  0
  5  6  1  0
  6  7  2  0
  7  8  1  0
  8  9  2  0
  9 10  1  0
 10 11  2  0
 11 12  1  0
 12 13  2  0
 12 14  1  0
 11 15  1  0
 10 16  1  0
  9 17  1  0
  7 18  1  0
  5 19  1  0
  3 20  1  0
  3 21  1  0
  2 22  1  0
 22 23  1  0
 23 24  1  0
 24 25  1  0
 25 26  1  0
 26 27  1  0
 26 28  1  0
 26 29  1  0
 25 30  1  0
 30 31  1  0
 31 32  1  0
 31 33  1  0
 30 34  1  0
 30 35  1  0
 25 36  1  0
 24 37  1  0
 24 38  1  0
 23 39  1  0
 23 40  1  0
 13  4  1  0
 31 22  1  0
 13  8  1  0
M  END
>  <cnnaffinities>  (34) 
[4.41026]

>  <score>  (34) 
4.41026

>  <index>  (34) 
35

>  <Smiles>  (34) 
O=C(C(c1c(nc(c2c(c(c(c(c12)[H])[H])[H])[H])[H])[H])([H])[H])N1C(C(C(C(F)(F)F)(C(C1([H])[H])([H])[H])[H])([H])[H])([H])[H]

>  <h>  (34) 
<NA>

>  <Training>  (34) 
True

>  <Success>  (34) 
True

>  <enamine_searched>  (34) 
False

>  <enamine_id>  (34) 
nan

$$$$

     RDKit          3D

 47 50  0  0  0  0  0  0  0  0999 V2000
   -6.0883   -3.4678  -21.2161 O   0  0  0  0  0  0  0  0  0  0  0  0
   -6.6443   -2.6589  -21.9375 C   0  0  0  0  0  0  0  0  0  0  0  0
   -7.3857   -1.4619  -21.2928 C   0  0  0  0  0  0  0  0  0  0  0  0
   -6.5776   -0.8250  -20.1814 C   0  0  0  0  0  0  0  0  0  0  0  0
   -6.8720   -1.0486  -18.8614 C   0  0  0  0  0  0  0  0  0  0  0  0
   -6.1862   -0.5466  -17.7970 N   0  0  0  0  0  0  0  0  0  0  0  0
   -5.1577    0.2211  -18.0627 C   0  0  0  0  0  0  0  0  0  0  0  0
   -4.7230    0.5373  -19.3769 C   0  0  0  0  0  0  0  0  0  0  0  0
   -3.5936    1.3609  -19.6170 C   0  0  0  0  0  0  0  0  0  0  0  0
   -3.2045    1.6574  -20.8950 C   0  0  0  0  0  0  0  0  0  0  0  0
   -3.9467    1.1526  -21.9844 C   0  0  0  0  0  0  0  0  0  0  0  0
   -5.0328    0.3363  -21.7810 C   0  0  0  0  0  0  0  0  0  0  0  0
   -5.4545    0.0064  -20.4692 C   0  0  0  0  0  0  0  0  0  0  0  0
   -5.5370   -0.1035  -22.6373 H   0  0  0  0  0  0  0  0  0  0  0  0
   -3.6017    1.3367  -22.9964 H   0  0  0  0  0  0  0  0  0  0  0  0
   -2.3310    2.2760  -21.0853 H   0  0  0  0  0  0  0  0  0  0  0  0
   -3.0546    1.7682  -18.7653 H   0  0  0  0  0  0  0  0  0  0  0  0
   -4.6047    0.6276  -17.2133 H   0  0  0  0  0  0  0  0  0  0  0  0
   -7.7207   -1.6707  -18.5841 H   0  0  0  0  0  0  0  0  0  0  0  0
   -8.3107   -1.8634  -20.8625 H   0  0  0  0  0  0  0  0  0  0  0  0
   -7.6896   -0.7100  -22.0295 H   0  0  0  0  0  0  0  0  0  0  0  0
   -6.6113   -2.7871  -23.3151 N   0  0  0  0  0  0  0  0  0  0  0  0
   -5.5575   -3.6024  -23.9113 C   0  0  0  0  0  0  0  0  0  0  0  0
   -6.0972   -4.6262  -24.9081 C   0  0  0  0  0  0  0  0  0  0  0  0
   -7.0955   -4.0159  -25.9087 C   0  0  0  0  0  0  0  0  0  0  0  0
   -7.2795   -2.5178  -25.6768 C   0  0  0  0  0  0  0  0  0  0  0  0
   -7.5720   -2.1514  -24.2120 C   0  0  1  0  0  0  0  0  0  0  0  0
   -9.0184   -2.4572  -23.8368 C   0  0  0  0  0  0  0  0  0  0  0  0
   -9.4053   -3.7234  -23.3984 C   0  0  0  0  0  0  0  0  0  0  0  0
  -10.7328   -3.9921  -23.0814 C   0  0  0  0  0  0  0  0  0  0  0  0
  -11.7011   -3.0001  -23.2082 C   0  0  0  0  0  0  0  0  0  0  0  0
  -11.3331   -1.7437  -23.6808 C   0  0  0  0  0  0  0  0  0  0  0  0
  -10.0018   -1.4782  -23.9959 C   0  0  0  0  0  0  0  0  0  0  0  0
   -9.7314   -0.4906  -24.3655 H   0  0  0  0  0  0  0  0  0  0  0  0
  -12.0833   -0.9665  -23.7986 H   0  0  0  0  0  0  0  0  0  0  0  0
  -12.7382   -3.2182  -22.9692 H   0  0  0  0  0  0  0  0  0  0  0  0
  -11.0051   -4.9844  -22.7346 H   0  0  0  0  0  0  0  0  0  0  0  0
   -8.6612   -4.5077  -23.2924 H   0  0  0  0  0  0  0  0  0  0  0  0
   -7.4424   -1.0640  -24.1363 H   0  0  0  0  0  0  0  0  0  0  0  0
   -6.4023   -1.9661  -26.0296 H   0  0  0  0  0  0  0  0  0  0  0  0
   -8.1055   -2.1547  -26.2893 H   0  0  0  0  0  0  0  0  0  0  0  0
   -8.0671   -4.5159  -25.8212 H   0  0  0  0  0  0  0  0  0  0  0  0
   -6.7653   -4.1823  -26.9396 H   0  0  0  0  0  0  0  0  0  0  0  0
   -5.2519   -5.0744  -25.4379 H   0  0  0  0  0  0  0  0  0  0  0  0
   -6.5705   -5.4448  -24.3600 H   0  0  0  0  0  0  0  0  0  0  0  0
   -4.8316   -2.9445  -24.4103 H   0  0  0  0  0  0  0  0  0  0  0  0
   -5.0319   -4.0972  -23.0986 H   0  0  0  0  0  0  0  0  0  0  0  0
  1  2  2  0
  2  3  1  0
  3  4  1  0
  4  5  2  0
  5  6  1  0
  6  7  2  0
  7  8  1  0
  8  9  2  0
  9 10  1  0
 10 11  2  0
 11 12  1  0
 12 13  2  0
 12 14  1  0
 11 15  1  0
 10 16  1  0
  9 17  1  0
  7 18  1  0
  5 19  1  0
  3 20  1  0
  3 21  1  0
  2 22  1  0
 22 23  1  0
 23 24  1  0
 24 25  1  0
 25 26  1  0
 26 27  1  0
 27 28  1  0
 28 29  2  0
 29 30  1  0
 30 31  2  0
 31 32  1  0
 32 33  2  0
 33 34  1  0
 32 35  1  0
 31 36  1  0
 30 37  1  0
 29 38  1  0
 27 39  1  6
 26 40  1  0
 26 41  1  0
 25 42  1  0
 25 43  1  0
 24 44  1  0
 24 45  1  0
 23 46  1  0
 23 47  1  0
 13  4  1  0
 27 22  1  0
 33 28  1  0
 13  8  1  0
M  END
>  <cnnaffinities>  (35) 
[5.42885, 5.42189, 5.02936, 5.03555, 5.05146, 5.05037, 5.34475, 5.34442]

>  <score>  (35) 
5.42885

>  <index>  (35) 
36

>  <Smiles>  (35) 
O=C(C(c1c(nc(c2c(c(c(c(c12)[H])[H])[H])[H])[H])[H])([H])[H])N1C(C(C(C([C@]1(c1c(c(c(c(c1[H])[H])[H])[H])[H])[H])([H])[H])([H])[H])([H])[H])([H])[H]

>  <h>  (35) 
<NA>

>  <Training>  (35) 
True

>  <Success>  (35) 
True

>  <enamine_searched>  (35) 
False

>  <enamine_id>  (35) 
nan

$$$$

     RDKit          3D

 56 60  0  0  0  0  0  0  0  0999 V2000
   -7.3095    3.4469  -21.8900 C   0  0  0  0  0  0  0  0  0  0  0  0
   -8.1441    2.9737  -22.9809 N   0  0  0  0  0  0  0  0  0  0  0  0
   -7.5736    2.2591  -23.9794 C   0  0  0  0  0  0  0  0  0  0  0  0
   -6.3604    2.1265  -24.0817 O   0  0  0  0  0  0  0  0  0  0  0  0
   -8.5253    1.6357  -25.0081 C   0  0  0  0  0  0  0  0  0  0  0  0
   -9.2739    0.5003  -24.5011 N   0  0  0  0  0  0  0  0  0  0  0  0
   -8.5724   -0.7559  -24.3039 C   0  0  0  0  0  0  0  0  0  0  0  0
   -8.9878   -1.4542  -22.9837 C   0  0  2  0  0  0  0  0  0  0  0  0
   -8.4392   -0.6646  -21.7645 C   0  0  0  0  0  0  0  0  0  0  0  0
   -8.8364    0.4022  -21.3414 O   0  0  0  0  0  0  0  0  0  0  0  0
   -7.4064   -1.3757  -21.2009 N   0  0  0  0  0  0  0  0  0  0  0  0
   -6.6073   -0.8039  -20.1715 C   0  0  0  0  0  0  0  0  0  0  0  0
   -6.9075   -1.0476  -18.8582 C   0  0  0  0  0  0  0  0  0  0  0  0
   -6.2027   -0.5593  -17.8071 N   0  0  0  0  0  0  0  0  0  0  0  0
   -5.1700    0.2044  -18.0734 C   0  0  0  0  0  0  0  0  0  0  0  0
   -4.7399    0.5429  -19.3876 C   0  0  0  0  0  0  0  0  0  0  0  0
   -3.6109    1.3756  -19.6302 C   0  0  0  0  0  0  0  0  0  0  0  0
   -3.2314    1.6809  -20.9087 C   0  0  0  0  0  0  0  0  0  0  0  0
   -3.9711    1.1784  -22.0012 C   0  0  0  0  0  0  0  0  0  0  0  0
   -5.0607    0.3648  -21.7932 C   0  0  0  0  0  0  0  0  0  0  0  0
   -5.4842    0.0291  -20.4794 C   0  0  0  0  0  0  0  0  0  0  0  0
   -5.5842   -0.0556  -22.6478 H   0  0  0  0  0  0  0  0  0  0  0  0
   -3.6657    1.3966  -23.0192 H   0  0  0  0  0  0  0  0  0  0  0  0
   -2.3593    2.3031  -21.0913 H   0  0  0  0  0  0  0  0  0  0  0  0
   -3.0675    1.7645  -18.7723 H   0  0  0  0  0  0  0  0  0  0  0  0
   -4.6210    0.6091  -17.2219 H   0  0  0  0  0  0  0  0  0  0  0  0
   -7.7616   -1.6709  -18.6038 H   0  0  0  0  0  0  0  0  0  0  0  0
   -7.0844   -2.6111  -21.8859 C   0  0  0  0  0  0  0  0  0  0  0  0
   -8.2901   -2.8504  -22.8231 C   0  0  2  0  0  0  0  0  0  0  0  0
   -7.8859   -3.5904  -24.1046 C   0  0  0  0  0  0  0  0  0  0  0  0
   -7.1146   -3.0391  -24.6557 H   0  0  0  0  0  0  0  0  0  0  0  0
   -7.4701   -4.5750  -23.8648 H   0  0  0  0  0  0  0  0  0  0  0  0
   -8.7356   -3.7449  -24.7785 H   0  0  0  0  0  0  0  0  0  0  0  0
   -9.0057   -3.4786  -22.2876 H   0  0  0  0  0  0  0  0  0  0  0  0
   -6.1481   -2.5129  -22.4581 H   0  0  0  0  0  0  0  0  0  0  0  0
   -6.9435   -3.4260  -21.1640 H   0  0  0  0  0  0  0  0  0  0  0  0
  -10.5095   -1.4657  -22.9144 C   0  0  0  0  0  0  0  0  0  0  0  0
  -11.1699   -2.3053  -22.0117 C   0  0  0  0  0  0  0  0  0  0  0  0
  -12.5516   -2.3101  -21.9175 C   0  0  0  0  0  0  0  0  0  0  0  0
  -13.3132   -1.4471  -22.7111 C   0  0  0  0  0  0  0  0  0  0  0  0
  -12.6769   -0.5578  -23.5557 C   0  0  0  0  0  0  0  0  0  0  0  0
  -11.2834   -0.5421  -23.6300 C   0  0  0  0  0  0  0  0  0  0  0  0
  -10.6381    0.5728  -24.4002 C   0  0  0  0  0  0  0  0  0  0  0  0
  -11.3000    1.4978  -24.8554 O   0  0  0  0  0  0  0  0  0  0  0  0
  -13.2143    0.1726  -24.1523 H   0  0  0  0  0  0  0  0  0  0  0  0
  -14.3960   -1.4461  -22.6406 H   0  0  0  0  0  0  0  0  0  0  0  0
  -13.0390   -2.9773  -21.2130 H   0  0  0  0  0  0  0  0  0  0  0  0
  -10.5969   -2.9491  -21.3503 H   0  0  0  0  0  0  0  0  0  0  0  0
   -8.7695   -1.4425  -25.1433 H   0  0  0  0  0  0  0  0  0  0  0  0
   -7.5021   -0.5261  -24.2741 H   0  0  0  0  0  0  0  0  0  0  0  0
   -7.8896    1.3374  -25.8510 H   0  0  0  0  0  0  0  0  0  0  0  0
   -9.2818    2.3454  -25.3506 H   0  0  0  0  0  0  0  0  0  0  0  0
   -9.1413    2.9167  -22.8511 H   0  0  0  0  0  0  0  0  0  0  0  0
   -6.7477    2.6107  -21.4466 H   0  0  0  0  0  0  0  0  0  0  0  0
   -6.5845    4.1858  -22.2499 H   0  0  0  0  0  0  0  0  0  0  0  0
   -7.9579    3.9151  -21.1467 H   0  0  0  0  0  0  0  0  0  0  0  0
  1  2  1  0
  2  3  1  0
  3  4  2  0
  3  5  1  0
  5  6  1  0
  6  7  1  0
  8  7  1  6
  8  9  1  0
  9 10  2  0
  9 11  1  0
 11 12  1  0
 12 13  2  0
 13 14  1  0
 14 15  2  0
 15 16  1  0
 16 17  2  0
 17 18  1  0
 18 19  2  0
 19 20  1  0
 20 21  2  0
 20 22  1  0
 19 23  1  0
 18 24  1  0
 17 25  1  0
 15 26  1  0
 13 27  1  0
 11 28  1  0
 28 29  1  0
 29 30  1  0
 30 31  1  0
 30 32  1  0
 30 33  1  0
 29 34  1  1
 28 35  1  0
 28 36  1  0
  8 37  1  0
 37 38  2  0
 38 39  1  0
 39 40  2  0
 40 41  1  0
 41 42  2  0
 42 43  1  0
 43 44  2  0
 41 45  1  0
 40 46  1  0
 39 47  1  0
 38 48  1  0
  7 49  1  0
  7 50  1  0
  5 51  1  0
  5 52  1  0
  2 53  1  0
  1 54  1  0
  1 55  1  0
  1 56  1  0
 43  6  1  0
 29  8  1  0
 42 37  1  0
 21 12  1  0
 21 16  1  0
M  END
>  <cnnaffinities>  (36) 
[6.1652]

>  <score>  (36) 
6.1652

>  <index>  (36) 
37

>  <Smiles>  (36) 
C(N(C(=O)C(N1C([C@@]2(C(=O)N(c3c(nc(c4c(c(c(c(c34)[H])[H])[H])[H])[H])[H])C([C@@]2(C([H])([H])[H])[H])([H])[H])c2c(c(c(c(c2C1=O)[H])[H])[H])[H])([H])[H])([H])[H])[H])([H])([H])[H]

>  <h>  (36) 
<NA>

>  <Training>  (36) 
True

>  <Success>  (36) 
True

>  <enamine_searched>  (36) 
False

>  <enamine_id>  (36) 
nan

$$$$

     RDKit          3D

 46 48  0  0  0  0  0  0  0  0999 V2000
   -8.1588   -4.6955  -26.5419 C   0  0  0  0  0  0  0  0  0  0  0  0
   -8.6490   -4.9634  -25.1178 C   0  0  1  0  0  0  0  0  0  0  0  0
   -7.5867   -5.5274  -24.1824 C   0  0  0  0  0  0  0  0  0  0  0  0
   -6.6132   -4.5198  -23.5540 C   0  0  1  0  0  0  0  0  0  0  0  0
   -5.4108   -4.1611  -24.4399 C   0  0  0  0  0  0  0  0  0  0  0  0
   -4.6068   -3.7388  -23.8293 H   0  0  0  0  0  0  0  0  0  0  0  0
   -5.6623   -3.4326  -25.2133 H   0  0  0  0  0  0  0  0  0  0  0  0
   -5.0141   -5.0549  -24.9389 H   0  0  0  0  0  0  0  0  0  0  0  0
   -7.3186   -3.3364  -23.0107 N   0  0  0  0  0  0  0  0  0  0  0  0
   -6.7218   -2.7017  -21.9368 C   0  0  0  0  0  0  0  0  0  0  0  0
   -5.6778   -3.1197  -21.4586 O   0  0  0  0  0  0  0  0  0  0  0  0
   -7.4071   -1.4694  -21.2805 C   0  0  0  0  0  0  0  0  0  0  0  0
   -6.5792   -0.8337  -20.1844 C   0  0  0  0  0  0  0  0  0  0  0  0
   -6.8720   -1.0487  -18.8632 C   0  0  0  0  0  0  0  0  0  0  0  0
   -6.1876   -0.5463  -17.7986 N   0  0  0  0  0  0  0  0  0  0  0  0
   -5.1589    0.2212  -18.0630 C   0  0  0  0  0  0  0  0  0  0  0  0
   -4.7222    0.5323  -19.3785 C   0  0  0  0  0  0  0  0  0  0  0  0
   -3.5936    1.3593  -19.6193 C   0  0  0  0  0  0  0  0  0  0  0  0
   -3.1997    1.6510  -20.8964 C   0  0  0  0  0  0  0  0  0  0  0  0
   -3.9388    1.1429  -21.9868 C   0  0  0  0  0  0  0  0  0  0  0  0
   -5.0238    0.3235  -21.7801 C   0  0  0  0  0  0  0  0  0  0  0  0
   -5.4505   -0.0065  -20.4706 C   0  0  0  0  0  0  0  0  0  0  0  0
   -5.5303   -0.1182  -22.6336 H   0  0  0  0  0  0  0  0  0  0  0  0
   -3.5894    1.3245  -22.9979 H   0  0  0  0  0  0  0  0  0  0  0  0
   -2.3280    2.2729  -21.0866 H   0  0  0  0  0  0  0  0  0  0  0  0
   -3.0535    1.7709  -18.7687 H   0  0  0  0  0  0  0  0  0  0  0  0
   -4.6029    0.6281  -17.2148 H   0  0  0  0  0  0  0  0  0  0  0  0
   -7.7204   -1.6713  -18.5868 H   0  0  0  0  0  0  0  0  0  0  0  0
   -7.6711   -0.7105  -22.0293 H   0  0  0  0  0  0  0  0  0  0  0  0
   -8.3587   -1.8072  -20.8466 H   0  0  0  0  0  0  0  0  0  0  0  0
   -8.4005   -2.7212  -23.7880 C   0  0  1  0  0  0  0  0  0  0  0  0
   -7.9399   -1.6596  -24.7994 C   0  0  0  0  0  0  0  0  0  0  0  0
   -7.4435   -2.0867  -25.6749 H   0  0  0  0  0  0  0  0  0  0  0  0
   -8.7982   -1.0828  -25.1705 H   0  0  0  0  0  0  0  0  0  0  0  0
   -7.2445   -0.9502  -24.3423 H   0  0  0  0  0  0  0  0  0  0  0  0
   -9.3102   -3.7792  -24.4180 C   0  0  0  0  0  0  0  0  0  0  0  0
   -9.9821   -4.1657  -23.6424 H   0  0  0  0  0  0  0  0  0  0  0  0
   -9.9245   -3.2499  -25.1425 H   0  0  0  0  0  0  0  0  0  0  0  0
   -9.0331   -2.1953  -23.0656 H   0  0  0  0  0  0  0  0  0  0  0  0
   -6.1932   -5.0217  -22.6812 H   0  0  0  0  0  0  0  0  0  0  0  0
   -8.0909   -6.0582  -23.3680 H   0  0  0  0  0  0  0  0  0  0  0  0
   -7.0117   -6.2914  -24.7147 H   0  0  0  0  0  0  0  0  0  0  0  0
   -9.4276   -5.7355  -25.2239 H   0  0  0  0  0  0  0  0  0  0  0  0
   -7.9251   -5.6401  -27.0466 H   0  0  0  0  0  0  0  0  0  0  0  0
   -8.9315   -4.1952  -27.1373 H   0  0  0  0  0  0  0  0  0  0  0  0
   -7.2562   -4.0817  -26.5825 H   0  0  0  0  0  0  0  0  0  0  0  0
  1  2  1  0
  2  3  1  0
  3  4  1  0
  4  5  1  0
  5  6  1  0
  5  7  1  0
  5  8  1  0
  4  9  1  0
  9 10  1  0
 10 11  2  0
 10 12  1  0
 12 13  1  0
 13 14  2  0
 14 15  1  0
 15 16  2  0
 16 17  1  0
 17 18  2  0
 18 19  1  0
 19 20  2  0
 20 21  1  0
 21 22  2  0
 21 23  1  0
 20 24  1  0
 19 25  1  0
 18 26  1  0
 16 27  1  0
 14 28  1  0
 12 29  1  0
 12 30  1  0
  9 31  1  0
 31 32  1  0
 32 33  1  0
 32 34  1  0
 32 35  1  0
 31 36  1  0
 36 37  1  0
 36 38  1  0
 31 39  1  1
  4 40  1  1
  3 41  1  0
  3 42  1  0
  2 43  1  6
  1 44  1  0
  1 45  1  0
  1 46  1  0
 36  2  1  0
 22 13  1  0
 22 17  1  0
M  END
>  <cnnaffinities>  (37) 
[5.21846, 5.40938]

>  <score>  (37) 
5.21846

>  <index>  (37) 
38

>  <Smiles>  (37) 
C([C@]1(C([C@@](C([H])([H])[H])(N(C(=O)C(c2c(nc(c3c(c(c(c(c23)[H])[H])[H])[H])[H])[H])([H])[H])[C@@](C([H])([H])[H])(C1([H])[H])[H])[H])([H])[H])[H])([H])([H])[H]

>  <h>  (37) 
<NA>

>  <Training>  (37) 
True

>  <Success>  (37) 
True

>  <enamine_searched>  (37) 
False

>  <enamine_id>  (37) 
nan

$$$$

     RDKit          3D

 40 44  0  0  0  0  0  0  0  0999 V2000
   -7.2397    0.9258  -25.5975 C   0  0  0  0  0  0  0  0  0  0  0  0
   -6.5119   -0.3956  -25.4081 C   0  0  0  0  0  0  0  0  0  0  0  0
   -5.3011   -0.5085  -25.5381 O   0  0  0  0  0  0  0  0  0  0  0  0
   -7.2725   -1.4754  -25.0906 N   0  0  0  0  0  0  0  0  0  0  0  0
   -6.6335   -2.7641  -24.7426 C   0  0  0  0  0  0  0  0  0  0  0  0
   -7.8054   -3.4852  -24.0498 C   0  0  2  0  0  0  0  0  0  0  0  0
   -9.0023   -2.9597  -24.8589 C   0  0  0  0  0  0  0  0  0  0  0  0
   -8.6589   -1.4855  -24.5586 C   0  0  1  0  0  0  0  0  0  0  0  0
   -8.5622   -1.5458  -23.0905 C   0  0  0  0  0  0  0  0  0  0  0  0
   -8.1684   -0.6098  -22.0792 C   0  0  0  0  0  0  0  0  0  0  0  0
   -8.3601    0.5780  -21.9709 O   0  0  0  0  0  1  0  0  0  0  0  0
   -7.4007   -1.3869  -21.1792 N   0  0  0  0  0  0  0  0  0  0  0  0
   -6.5832   -0.8218  -20.1671 C   0  0  0  0  0  0  0  0  0  0  0  0
   -6.8899   -1.0663  -18.8551 C   0  0  0  0  0  0  0  0  0  0  0  0
   -6.1983   -0.5602  -17.8084 N   0  0  0  0  0  0  0  0  0  0  0  0
   -5.1699    0.2079  -18.0767 C   0  0  0  0  0  0  0  0  0  0  0  0
   -4.7386    0.5419  -19.3926 C   0  0  0  0  0  0  0  0  0  0  0  0
   -3.6054    1.3715  -19.6192 C   0  0  0  0  0  0  0  0  0  0  0  0
   -3.2137    1.6773  -20.8932 C   0  0  0  0  0  0  0  0  0  0  0  0
   -3.9417    1.1676  -21.9903 C   0  0  0  0  0  0  0  0  0  0  0  0
   -5.0247    0.3450  -21.7987 C   0  0  0  0  0  0  0  0  0  0  0  0
   -5.4682    0.0239  -20.4829 C   0  0  0  0  0  0  0  0  0  0  0  0
   -5.4888   -0.1165  -22.6680 H   0  0  0  0  0  0  0  0  0  0  0  0
   -3.6028    1.3556  -23.0054 H   0  0  0  0  0  0  0  0  0  0  0  0
   -2.3277    2.2814  -21.0727 H   0  0  0  0  0  0  0  0  0  0  0  0
   -3.0691    1.7521  -18.7556 H   0  0  0  0  0  0  0  0  0  0  0  0
   -4.6293    0.6148  -17.2240 H   0  0  0  0  0  0  0  0  0  0  0  0
   -7.7435   -1.6919  -18.6040 H   0  0  0  0  0  0  0  0  0  0  0  0
   -7.2419   -2.7030  -21.6389 C   0  0  0  0  0  0  0  0  0  0  0  0
   -6.5163   -3.5476  -21.1783 O   0  0  0  0  0  0  0  0  0  0  0  0
   -8.0603   -2.7784  -22.7650 N   0  0  0  0  0  0  0  0  0  0  0  0
   -9.2736   -0.6874  -24.9796 H   0  0  0  0  0  0  0  0  0  0  0  0
   -9.9538   -3.2744  -24.4388 H   0  0  0  0  0  0  0  0  0  0  0  0
   -8.9324   -3.1948  -25.9236 H   0  0  0  0  0  0  0  0  0  0  0  0
   -7.6936   -4.5530  -23.9031 H   0  0  0  0  0  0  0  0  0  0  0  0
   -5.7886   -2.6146  -24.0606 H   0  0  0  0  0  0  0  0  0  0  0  0
   -6.2874   -3.2689  -25.6482 H   0  0  0  0  0  0  0  0  0  0  0  0
   -6.4879    1.6547  -25.9014 H   0  0  0  0  0  0  0  0  0  0  0  0
   -7.7251    1.2456  -24.6680 H   0  0  0  0  0  0  0  0  0  0  0  0
   -8.0222    0.8558  -26.3629 H   0  0  0  0  0  0  0  0  0  0  0  0
  1  2  1  0
  2  3  2  0
  2  4  1  0
  4  5  1  0
  5  6  1  0
  6  7  1  0
  7  8  1  0
  8  9  1  0
  9 10  2  0
 10 11  1  0
 10 12  1  0
 12 13  1  0
 13 14  2  0
 14 15  1  0
 15 16  2  0
 16 17  1  0
 17 18  2  0
 18 19  1  0
 19 20  2  0
 20 21  1  0
 21 22  2  0
 21 23  1  0
 20 24  1  0
 19 25  1  0
 18 26  1  0
 16 27  1  0
 14 28  1  0
 12 29  1  0
 29 30  2  0
 29 31  1  0
  8 32  1  1
  7 33  1  0
  7 34  1  0
  6 35  1  1
  5 36  1  0
  5 37  1  0
  1 38  1  0
  1 39  1  0
  1 40  1  0
  8  4  1  0
 31  9  1  0
 31  6  1  0
 22 13  1  0
 22 17  1  0
M  CHG  1  11  -1
M  END
>  <cnnaffinities>  (38) 
[4.95843]

>  <score>  (38) 
4.95843

>  <index>  (38) 
39

>  <Smiles>  (38) 
C(C(=O)N1C([C@@]2(C([C@]1(c1c([O-])n(c3c(nc(c4c(c(c(c(c34)[H])[H])[H])[H])[H])[H])c(=O)n21)[H])([H])[H])[H])([H])[H])([H])([H])[H]

>  <h>  (38) 
<NA>

>  <Training>  (38) 
True

>  <Success>  (38) 
True

>  <enamine_searched>  (38) 
False

>  <enamine_id>  (38) 
nan

$$$$

     RDKit          3D

 40 42  0  0  0  0  0  0  0  0999 V2000
  -10.2681   -6.4027  -23.5581 C   0  0  0  0  0  0  0  0  0  0  0  0
   -8.9246   -5.7141  -23.8400 C   0  0  0  0  0  0  0  0  0  0  0  0
   -7.9973   -5.9650  -22.6414 C   0  0  0  0  0  0  0  0  0  0  0  0
   -6.8494   -4.9742  -22.5862 C   0  0  0  0  0  0  0  0  0  0  0  0
   -7.4221   -3.6510  -22.3527 N   0  0  0  0  0  0  0  0  0  0  0  0
   -6.6697   -2.7567  -21.6588 C   0  0  0  0  0  0  0  0  0  0  0  0
   -5.5013   -2.9764  -21.3774 O   0  0  0  0  0  0  0  0  0  0  0  0
   -7.3815   -1.4698  -21.2307 C   0  0  0  0  0  0  0  0  0  0  0  0
   -6.6136   -0.7894  -20.1523 C   0  0  0  0  0  0  0  0  0  0  0  0
   -6.9026   -1.0637  -18.8452 C   0  0  0  0  0  0  0  0  0  0  0  0
   -6.2278   -0.5748  -17.7761 N   0  0  0  0  0  0  0  0  0  0  0  0
   -5.1997    0.1985  -18.0364 C   0  0  0  0  0  0  0  0  0  0  0  0
   -4.7663    0.5427  -19.3452 C   0  0  0  0  0  0  0  0  0  0  0  0
   -3.6440    1.3743  -19.5766 C   0  0  0  0  0  0  0  0  0  0  0  0
   -3.2834    1.7141  -20.8521 C   0  0  0  0  0  0  0  0  0  0  0  0
   -4.0254    1.2337  -21.9506 C   0  0  0  0  0  0  0  0  0  0  0  0
   -5.0968    0.3990  -21.7571 C   0  0  0  0  0  0  0  0  0  0  0  0
   -5.5004    0.0432  -20.4442 C   0  0  0  0  0  0  0  0  0  0  0  0
   -5.6151   -0.0133  -22.6168 H   0  0  0  0  0  0  0  0  0  0  0  0
   -3.7301    1.5107  -22.9577 H   0  0  0  0  0  0  0  0  0  0  0  0
   -2.4316    2.3622  -21.0257 H   0  0  0  0  0  0  0  0  0  0  0  0
   -3.0929    1.7536  -18.7218 H   0  0  0  0  0  0  0  0  0  0  0  0
   -4.6508    0.5867  -17.1789 H   0  0  0  0  0  0  0  0  0  0  0  0
   -7.7380   -1.7246  -18.6118 H   0  0  0  0  0  0  0  0  0  0  0  0
   -8.3858   -1.7245  -20.8660 H   0  0  0  0  0  0  0  0  0  0  0  0
   -7.4992   -0.8226  -22.1080 H   0  0  0  0  0  0  0  0  0  0  0  0
   -8.7822   -3.3804  -22.8101 C   0  0  0  0  0  0  0  0  0  0  0  0
   -9.0937   -4.1940  -24.0612 C   0  0  0  0  0  0  0  0  0  0  0  0
   -8.4709   -3.8224  -24.8856 H   0  0  0  0  0  0  0  0  0  0  0  0
  -10.1216   -3.9946  -24.3635 H   0  0  0  0  0  0  0  0  0  0  0  0
   -8.8917   -2.3179  -23.0455 H   0  0  0  0  0  0  0  0  0  0  0  0
   -9.5250   -3.6016  -22.0271 H   0  0  0  0  0  0  0  0  0  0  0  0
   -6.1721   -5.2227  -21.7640 H   0  0  0  0  0  0  0  0  0  0  0  0
   -6.2327   -4.9667  -23.4994 H   0  0  0  0  0  0  0  0  0  0  0  0
   -7.6136   -6.9893  -22.6592 H   0  0  0  0  0  0  0  0  0  0  0  0
   -8.5649   -5.8454  -21.7015 H   0  0  0  0  0  0  0  0  0  0  0  0
   -8.4537   -6.1246  -24.7505 H   0  0  0  0  0  0  0  0  0  0  0  0
  -10.9666   -6.2956  -24.3981 H   0  0  0  0  0  0  0  0  0  0  0  0
  -10.7104   -5.9353  -22.6579 H   0  0  0  0  0  0  0  0  0  0  0  0
  -10.1352   -7.4780  -23.3580 H   0  0  0  0  0  0  0  0  0  0  0  0
  1  2  1  0
  2  3  1  0
  3  4  1  0
  4  5  1  0
  5  6  1  0
  6  7  2  0
  6  8  1  0
  8  9  1  0
  9 10  2  0
 10 11  1  0
 11 12  2  0
 12 13  1  0
 13 14  2  0
 14 15  1  0
 15 16  2  0
 16 17  1  0
 17 18  2  0
 17 19  1  0
 16 20  1  0
 15 21  1  0
 14 22  1  0
 12 23  1  0
 10 24  1  0
  8 25  1  0
  8 26  1  0
  5 27  1  0
 27 28  1  0
 28 29  1  0
 28 30  1  0
 27 31  1  0
 27 32  1  0
  4 33  1  0
  4 34  1  0
  3 35  1  0
  3 36  1  0
  2 37  1  0
  1 38  1  0
  1 39  1  0
  1 40  1  0
 28  2  1  0
 18  9  1  0
 18 13  1  0
M  END
>  <cnnaffinities>  (39) 
[4.03736, 4.03963, 4.48712, 4.48704]

>  <score>  (39) 
4.03736

>  <index>  (39) 
40

>  <Smiles>  (39) 
C(C1(C(C(N(C(=O)C(c2c(nc(c3c(c(c(c(c23)[H])[H])[H])[H])[H])[H])([H])[H])C(C1([H])[H])([H])[H])([H])[H])([H])[H])[H])([H])([H])[H]

>  <h>  (39) 
<NA>

>  <Training>  (39) 
True

>  <Success>  (39) 
True

>  <enamine_searched>  (39) 
False

>  <enamine_id>  (39) 
nan

$$$$

     RDKit          3D

 67 71  0  0  0  0  0  0  0  0999 V2000
   -6.8635    3.3851  -23.2707 C   0  0  0  0  0  0  0  0  0  0  0  0
   -7.5617    2.5807  -24.2438 N   0  0  0  0  0  0  0  0  0  0  0  0
   -6.9308    1.5598  -24.8546 C   0  0  0  0  0  0  0  0  0  0  0  0
   -5.7355    1.3173  -24.7362 O   0  0  0  0  0  0  0  0  0  0  0  0
   -7.8533    0.6808  -25.7035 C   0  0  0  0  0  0  0  0  0  0  0  0
   -8.8439    0.0248  -24.8705 N   0  0  0  0  0  0  0  0  0  0  0  0
   -8.5480   -1.2928  -24.3294 C   0  0  0  0  0  0  0  0  0  0  0  0
   -9.1037   -1.4692  -22.8884 C   0  0  2  0  0  0  0  0  0  0  0  0
   -8.3270   -0.5368  -21.9305 C   0  0  0  0  0  0  0  0  0  0  0  0
   -8.4428    0.6650  -21.7970 O   0  0  0  0  0  0  0  0  0  0  0  0
   -7.4377   -1.3004  -21.2157 N   0  0  0  0  0  0  0  0  0  0  0  0
   -6.6417   -0.7564  -20.1868 C   0  0  0  0  0  0  0  0  0  0  0  0
   -6.9199   -1.0688  -18.8794 C   0  0  0  0  0  0  0  0  0  0  0  0
   -6.2289   -0.5971  -17.8161 N   0  0  0  0  0  0  0  0  0  0  0  0
   -5.2103    0.1886  -18.0760 C   0  0  0  0  0  0  0  0  0  0  0  0
   -4.7926    0.5578  -19.3861 C   0  0  0  0  0  0  0  0  0  0  0  0
   -3.6562    1.3805  -19.6020 C   0  0  0  0  0  0  0  0  0  0  0  0
   -3.2723    1.7188  -20.8703 C   0  0  0  0  0  0  0  0  0  0  0  0
   -4.0127    1.2611  -21.9828 C   0  0  0  0  0  0  0  0  0  0  0  0
   -5.1054    0.4478  -21.8039 C   0  0  0  0  0  0  0  0  0  0  0  0
   -5.5292    0.0820  -20.4929 C   0  0  0  0  0  0  0  0  0  0  0  0
   -5.6358    0.0940  -22.6845 H   0  0  0  0  0  0  0  0  0  0  0  0
   -3.7267    1.5412  -22.9932 H   0  0  0  0  0  0  0  0  0  0  0  0
   -2.3963    2.3398  -21.0288 H   0  0  0  0  0  0  0  0  0  0  0  0
   -3.1086    1.7273  -18.7314 H   0  0  0  0  0  0  0  0  0  0  0  0
   -4.6486    0.5728  -17.2263 H   0  0  0  0  0  0  0  0  0  0  0  0
   -7.7647   -1.7213  -18.6552 H   0  0  0  0  0  0  0  0  0  0  0  0
   -7.4342   -2.6998  -21.5537 C   0  0  0  0  0  0  0  0  0  0  0  0
   -8.7535   -2.8741  -22.3252 C   0  0  2  0  0  0  0  0  0  0  0  0
   -8.6889   -3.9859  -23.3715 C   0  0  0  0  0  0  0  0  0  0  0  0
   -8.5049   -5.5832  -22.5952 S   0  0  0  0  0  0  0  0  0  0  0  0
   -9.5788   -5.7198  -21.6266 O   0  0  0  0  0  0  0  0  0  0  0  0
   -7.1186   -5.7332  -22.1762 O   0  0  0  0  0  0  0  0  0  0  0  0
   -8.7582   -6.6520  -23.8383 N   0  0  0  0  0  0  0  0  0  0  0  0
  -10.1091   -6.8645  -24.3369 C   0  0  0  0  0  0  0  0  0  0  0  0
  -10.4419   -6.1130  -25.0694 H   0  0  0  0  0  0  0  0  0  0  0  0
  -10.8030   -6.8674  -23.5003 H   0  0  0  0  0  0  0  0  0  0  0  0
  -10.1433   -7.8459  -24.8194 H   0  0  0  0  0  0  0  0  0  0  0  0
   -7.6786   -6.8216  -24.7965 C   0  0  0  0  0  0  0  0  0  0  0  0
   -7.8205   -7.7834  -25.2939 H   0  0  0  0  0  0  0  0  0  0  0  0
   -7.6432   -6.0362  -25.5675 H   0  0  0  0  0  0  0  0  0  0  0  0
   -6.7305   -6.8412  -24.2567 H   0  0  0  0  0  0  0  0  0  0  0  0
   -7.8367   -3.8504  -24.0468 H   0  0  0  0  0  0  0  0  0  0  0  0
   -9.6131   -4.0128  -23.9567 H   0  0  0  0  0  0  0  0  0  0  0  0
   -9.5118   -3.1573  -21.5932 H   0  0  0  0  0  0  0  0  0  0  0  0
   -6.5600   -2.9539  -22.1701 H   0  0  0  0  0  0  0  0  0  0  0  0
   -7.3928   -3.3096  -20.6512 H   0  0  0  0  0  0  0  0  0  0  0  0
  -10.5777   -1.1161  -22.9234 C   0  0  0  0  0  0  0  0  0  0  0  0
  -11.5388   -1.7029  -22.0934 C   0  0  0  0  0  0  0  0  0  0  0  0
  -12.8627   -1.3361  -22.2236 C   0  0  0  0  0  0  0  0  0  0  0  0
  -13.7769   -1.9599  -21.4608 F   0  0  0  0  0  0  0  0  0  0  0  0
  -13.2929   -0.3806  -23.1359 C   0  0  0  0  0  0  0  0  0  0  0  0
  -12.3341    0.2601  -23.8956 C   0  0  0  0  0  0  0  0  0  0  0  0
  -10.9960   -0.1016  -23.7952 C   0  0  0  0  0  0  0  0  0  0  0  0
   -9.9941    0.6775  -24.5750 C   0  0  0  0  0  0  0  0  0  0  0  0
  -10.1948    1.8564  -24.8973 O   0  0  0  0  0  0  0  0  0  0  0  0
  -12.5791    1.0455  -24.6010 H   0  0  0  0  0  0  0  0  0  0  0  0
  -14.3494   -0.1622  -23.2432 H   0  0  0  0  0  0  0  0  0  0  0  0
  -11.2935   -2.4576  -21.3562 H   0  0  0  0  0  0  0  0  0  0  0  0
   -7.4630   -1.4554  -24.3346 H   0  0  0  0  0  0  0  0  0  0  0  0
   -8.9950   -2.0563  -24.9738 H   0  0  0  0  0  0  0  0  0  0  0  0
   -8.3775    1.2775  -26.4503 H   0  0  0  0  0  0  0  0  0  0  0  0
   -7.2677   -0.0678  -26.2392 H   0  0  0  0  0  0  0  0  0  0  0  0
   -8.5689    2.6608  -24.3588 H   0  0  0  0  0  0  0  0  0  0  0  0
   -6.4789    2.7587  -22.4549 H   0  0  0  0  0  0  0  0  0  0  0  0
   -7.5628    4.1127  -22.8590 H   0  0  0  0  0  0  0  0  0  0  0  0
   -6.0260    3.9032  -23.7462 H   0  0  0  0  0  0  0  0  0  0  0  0
  1  2  1  0
  2  3  1  0
  3  4  2  0
  3  5  1  0
  5  6  1  0
  6  7  1  0
  8  7  1  6
  8  9  1  0
  9 10  2  0
  9 11  1  0
 11 12  1  0
 12 13  2  0
 13 14  1  0
 14 15  2  0
 15 16  1  0
 16 17  2  0
 17 18  1  0
 18 19  2  0
 19 20  1  0
 20 21  2  0
 20 22  1  0
 19 23  1  0
 18 24  1  0
 17 25  1  0
 15 26  1  0
 13 27  1  0
 11 28  1  0
 28 29  1  0
 29 30  1  0
 30 31  1  0
 31 32  2  0
 31 33  2  0
 31 34  1  0
 34 35  1  0
 35 36  1  0
 35 37  1  0
 35 38  1  0
 34 39  1  0
 39 40  1  0
 39 41  1  0
 39 42  1  0
 30 43  1  0
 30 44  1  0
 29 45  1  1
 28 46  1  0
 28 47  1  0
  8 48  1  0
 48 49  2  0
 49 50  1  0
 50 51  1  0
 50 52  2  0
 52 53  1  0
 53 54  2  0
 54 55  1  0
 55 56  2  0
 53 57  1  0
 52 58  1  0
 49 59  1  0
  7 60  1  0
  7 61  1  0
  5 62  1  0
  5 63  1  0
  2 64  1  0
  1 65  1  0
  1 66  1  0
  1 67  1  0
 55  6  1  0
 29  8  1  0
 54 48  1  0
 21 12  1  0
 21 16  1  0
M  END
>  <cnnaffinities>  (40) 
[6.77757]

>  <score>  (40) 
6.77757

>  <index>  (40) 
41

>  <Smiles>  (40) 
C(N(C(=O)C(N1C([C@@]2(C(=O)N(c3c(nc(c4c(c(c(c(c34)[H])[H])[H])[H])[H])[H])C([C@@]2(C(S(=O)(=O)N(C([H])([H])[H])C([H])([H])[H])([H])[H])[H])([H])[H])c2c(c(F)c(c(c2C1=O)[H])[H])[H])([H])[H])([H])[H])[H])([H])([H])[H]

>  <h>  (40) 
<NA>

>  <Training>  (40) 
True

>  <Success>  (40) 
True

>  <enamine_searched>  (40) 
False

>  <enamine_id>  (40) 
nan

$$$$

     RDKit          3D

 67 72  0  0  0  0  0  0  0  0999 V2000
   -7.3824    3.4034  -21.8225 C   0  0  0  0  0  0  0  0  0  0  0  0
   -8.2549    2.9546  -22.8902 N   0  0  0  0  0  0  0  0  0  0  0  0
   -7.6969    2.2482  -23.9059 C   0  0  0  0  0  0  0  0  0  0  0  0
   -6.4877    2.1128  -24.0157 O   0  0  0  0  0  0  0  0  0  0  0  0
   -8.6518    1.6342  -24.9270 C   0  0  0  0  0  0  0  0  0  0  0  0
   -9.3521    0.4841  -24.3977 N   0  0  0  0  0  0  0  0  0  0  0  0
   -8.6269   -0.7594  -24.2297 C   0  0  0  0  0  0  0  0  0  0  0  0
   -9.0276   -1.4970  -22.9307 C   0  0  2  0  0  0  0  0  0  0  0  0
   -8.4997   -0.7245  -21.6985 C   0  0  0  0  0  0  0  0  0  0  0  0
   -8.9559    0.2949  -21.2255 O   0  0  0  0  0  0  0  0  0  0  0  0
   -7.3996   -1.3840  -21.2033 N   0  0  0  0  0  0  0  0  0  0  0  0
   -6.6069   -0.8086  -20.1772 C   0  0  0  0  0  0  0  0  0  0  0  0
   -6.9155   -1.0526  -18.8625 C   0  0  0  0  0  0  0  0  0  0  0  0
   -6.2170   -0.5656  -17.8088 N   0  0  0  0  0  0  0  0  0  0  0  0
   -5.1853    0.2036  -18.0687 C   0  0  0  0  0  0  0  0  0  0  0  0
   -4.7556    0.5442  -19.3844 C   0  0  0  0  0  0  0  0  0  0  0  0
   -3.6274    1.3759  -19.6221 C   0  0  0  0  0  0  0  0  0  0  0  0
   -3.2490    1.6896  -20.9012 C   0  0  0  0  0  0  0  0  0  0  0  0
   -3.9929    1.2041  -22.0003 C   0  0  0  0  0  0  0  0  0  0  0  0
   -5.0787    0.3830  -21.7963 C   0  0  0  0  0  0  0  0  0  0  0  0
   -5.4876    0.0287  -20.4812 C   0  0  0  0  0  0  0  0  0  0  0  0
   -5.6198   -0.0071  -22.6543 H   0  0  0  0  0  0  0  0  0  0  0  0
   -3.6953    1.4471  -23.0150 H   0  0  0  0  0  0  0  0  0  0  0  0
   -2.3790    2.3146  -21.0798 H   0  0  0  0  0  0  0  0  0  0  0  0
   -3.0738    1.7513  -18.7661 H   0  0  0  0  0  0  0  0  0  0  0  0
   -4.6216    0.5956  -17.2211 H   0  0  0  0  0  0  0  0  0  0  0  0
   -7.7769   -1.6717  -18.6210 H   0  0  0  0  0  0  0  0  0  0  0  0
   -7.0422   -2.5809  -21.9319 C   0  0  0  0  0  0  0  0  0  0  0  0
   -8.2907   -2.8644  -22.7872 C   0  0  2  0  0  0  0  0  0  0  0  0
   -7.9321   -3.6303  -24.0738 C   0  0  0  0  0  0  0  0  0  0  0  0
   -7.3857   -4.9322  -23.7719 N   0  0  0  0  0  0  0  0  0  0  0  0
   -6.0626   -5.2769  -23.7954 C   0  0  0  0  0  0  0  0  0  0  0  0
   -4.8130   -4.2315  -24.4153 S   0  0  0  0  0  0  0  0  0  0  0  0
   -3.6559   -5.4624  -23.9960 C   0  0  0  0  0  0  0  0  0  0  0  0
   -4.1458   -6.5341  -23.4680 N   0  0  0  0  0  0  0  0  0  0  0  0
   -5.5207   -6.4531  -23.3575 C   0  0  0  0  0  0  0  0  0  0  0  0
   -6.3093   -7.5958  -22.7867 C   0  0  0  0  0  0  0  0  0  0  0  0
   -7.0255   -8.0221  -23.5031 H   0  0  0  0  0  0  0  0  0  0  0  0
   -6.8729   -7.3114  -21.8876 H   0  0  0  0  0  0  0  0  0  0  0  0
   -5.6160   -8.3890  -22.5052 H   0  0  0  0  0  0  0  0  0  0  0  0
   -2.5996   -5.3057  -24.1808 H   0  0  0  0  0  0  0  0  0  0  0  0
   -8.0347   -5.6550  -23.5038 H   0  0  0  0  0  0  0  0  0  0  0  0
   -8.8187   -3.7558  -24.7084 H   0  0  0  0  0  0  0  0  0  0  0  0
   -7.1907   -3.0684  -24.6489 H   0  0  0  0  0  0  0  0  0  0  0  0
   -8.9527   -3.5145  -22.2109 H   0  0  0  0  0  0  0  0  0  0  0  0
   -6.1533   -2.4166  -22.5583 H   0  0  0  0  0  0  0  0  0  0  0  0
   -6.8092   -3.4040  -21.2481 H   0  0  0  0  0  0  0  0  0  0  0  0
  -10.5457   -1.5410  -22.8701 C   0  0  0  0  0  0  0  0  0  0  0  0
  -11.2010   -2.3724  -21.9537 C   0  0  0  0  0  0  0  0  0  0  0  0
  -12.5823   -2.3197  -21.8337 C   0  0  0  0  0  0  0  0  0  0  0  0
  -13.3545   -3.1908  -20.5408 Cl  0  0  0  0  0  0  0  0  0  0  0  0
  -13.3709   -1.5160  -22.6623 C   0  0  0  0  0  0  0  0  0  0  0  0
  -12.7246   -0.6567  -23.5269 C   0  0  0  0  0  0  0  0  0  0  0  0
  -11.3322   -0.6292  -23.5871 C   0  0  0  0  0  0  0  0  0  0  0  0
  -10.7144    0.5218  -24.3178 C   0  0  0  0  0  0  0  0  0  0  0  0
  -11.3865    1.4464  -24.7517 O   0  0  0  0  0  0  0  0  0  0  0  0
  -13.2637    0.0601  -24.1366 H   0  0  0  0  0  0  0  0  0  0  0  0
  -14.4575   -1.5486  -22.6021 H   0  0  0  0  0  0  0  0  0  0  0  0
  -10.6409   -3.0589  -21.3255 H   0  0  0  0  0  0  0  0  0  0  0  0
   -7.5581   -0.5279  -24.2202 H   0  0  0  0  0  0  0  0  0  0  0  0
   -8.8352   -1.4147  -25.0841 H   0  0  0  0  0  0  0  0  0  0  0  0
   -8.0391    1.3561  -25.7919 H   0  0  0  0  0  0  0  0  0  0  0  0
   -9.4218    2.3514  -25.2197 H   0  0  0  0  0  0  0  0  0  0  0  0
   -9.2268    2.8131  -22.6640 H   0  0  0  0  0  0  0  0  0  0  0  0
   -6.7989    2.5646  -21.4297 H   0  0  0  0  0  0  0  0  0  0  0  0
   -6.6785    4.1421  -22.2025 H   0  0  0  0  0  0  0  0  0  0  0  0
   -7.9641    3.8531  -21.0191 H   0  0  0  0  0  0  0  0  0  0  0  0
  1  2  1  0
  2  3  1  0
  3  4  2  0
  3  5  1  0
  5  6  1  0
  6  7  1  0
  8  7  1  6
  8  9  1  0
  9 10  2  0
  9 11  1  0
 11 12  1  0
 12 13  2  0
 13 14  1  0
 14 15  2  0
 15 16  1  0
 16 17  2  0
 17 18  1  0
 18 19  2  0
 19 20  1  0
 20 21  2  0
 20 22  1  0
 19 23  1  0
 18 24  1  0
 17 25  1  0
 15 26  1  0
 13 27  1  0
 11 28  1  0
 28 29  1  0
 29 30  1  0
 30 31  1  0
 31 32  1  0
 32 33  1  0
 33 34  1  0
 34 35  2  0
 35 36  1  0
 36 37  1  0
 37 38  1  0
 37 39  1  0
 37 40  1  0
 34 41  1  0
 31 42  1  0
 30 43  1  0
 30 44  1  0
 29 45  1  1
 28 46  1  0
 28 47  1  0
  8 48  1  0
 48 49  2  0
 49 50  1  0
 50 51  1  0
 50 52  2  0
 52 53  1  0
 53 54  2  0
 54 55  1  0
 55 56  2  0
 53 57  1  0
 52 58  1  0
 49 59  1  0
  7 60  1  0
  7 61  1  0
  5 62  1  0
  5 63  1  0
  2 64  1  0
  1 65  1  0
  1 66  1  0
  1 67  1  0
 55  6  1  0
 29  8  1  0
 36 32  2  0
 54 48  1  0
 21 12  1  0
 21 16  1  0
M  END
>  <cnnaffinities>  (41) 
[7.0745]

>  <score>  (41) 
7.0745

>  <index>  (41) 
43

>  <Smiles>  (41) 
C(N(C(=O)C(N1C([C@@]2(C(=O)N(c3c(nc(c4c(c(c(c(c34)[H])[H])[H])[H])[H])[H])C([C@@]2(C(N(c2sc(nc2C([H])([H])[H])[H])[H])([H])[H])[H])([H])[H])c2c(c(Cl)c(c(c2C1=O)[H])[H])[H])([H])[H])([H])[H])[H])([H])([H])[H]

>  <h>  (41) 
<NA>

>  <Training>  (41) 
True

>  <Success>  (41) 
True

>  <enamine_searched>  (41) 
False

>  <enamine_id>  (41) 
nan

$$$$

     RDKit          3D

 60 64  0  0  0  0  0  0  0  0999 V2000
   -7.4119    3.3824  -21.7873 C   0  0  0  0  0  0  0  0  0  0  0  0
   -8.2827    2.9250  -22.8510 N   0  0  0  0  0  0  0  0  0  0  0  0
   -7.7135    2.2371  -23.8719 C   0  0  0  0  0  0  0  0  0  0  0  0
   -6.4998    2.1336  -23.9873 O   0  0  0  0  0  0  0  0  0  0  0  0
   -8.6626    1.6169  -24.8973 C   0  0  0  0  0  0  0  0  0  0  0  0
   -9.3864    0.4627  -24.3968 N   0  0  0  0  0  0  0  0  0  0  0  0
   -8.6727   -0.7954  -24.2305 C   0  0  0  0  0  0  0  0  0  0  0  0
   -9.0672   -1.5175  -22.9139 C   0  0  2  0  0  0  0  0  0  0  0  0
   -8.5151   -0.7274  -21.6931 C   0  0  0  0  0  0  0  0  0  0  0  0
   -8.9599    0.2955  -21.2209 O   0  0  0  0  0  0  0  0  0  0  0  0
   -7.4065   -1.3841  -21.2028 N   0  0  0  0  0  0  0  0  0  0  0  0
   -6.6071   -0.8083  -20.1735 C   0  0  0  0  0  0  0  0  0  0  0  0
   -6.9083   -1.0464  -18.8584 C   0  0  0  0  0  0  0  0  0  0  0  0
   -6.2031   -0.5572  -17.8078 N   0  0  0  0  0  0  0  0  0  0  0  0
   -5.1690    0.2042  -18.0735 C   0  0  0  0  0  0  0  0  0  0  0  0
   -4.7370    0.5387  -19.3873 C   0  0  0  0  0  0  0  0  0  0  0  0
   -3.6107    1.3754  -19.6308 C   0  0  0  0  0  0  0  0  0  0  0  0
   -3.2361    1.6850  -20.9096 C   0  0  0  0  0  0  0  0  0  0  0  0
   -3.9775    1.1827  -22.0015 C   0  0  0  0  0  0  0  0  0  0  0  0
   -5.0639    0.3657  -21.7925 C   0  0  0  0  0  0  0  0  0  0  0  0
   -5.4797    0.0225  -20.4791 C   0  0  0  0  0  0  0  0  0  0  0  0
   -5.5965   -0.0464  -22.6448 H   0  0  0  0  0  0  0  0  0  0  0  0
   -3.6731    1.4036  -23.0190 H   0  0  0  0  0  0  0  0  0  0  0  0
   -2.3672    2.3115  -21.0933 H   0  0  0  0  0  0  0  0  0  0  0  0
   -3.0677    1.7672  -18.7744 H   0  0  0  0  0  0  0  0  0  0  0  0
   -4.6205    0.6094  -17.2219 H   0  0  0  0  0  0  0  0  0  0  0  0
   -7.7624   -1.6696  -18.6031 H   0  0  0  0  0  0  0  0  0  0  0  0
   -7.0700   -2.5977  -21.9211 C   0  0  0  0  0  0  0  0  0  0  0  0
   -8.3307   -2.8874  -22.7613 C   0  0  2  0  0  0  0  0  0  0  0  0
   -7.9813   -3.6549  -24.0346 C   0  0  0  0  0  0  0  0  0  0  0  0
   -9.1508   -3.9345  -24.7630 O   0  0  0  0  0  0  0  0  0  0  0  0
   -8.8682   -4.5821  -25.9804 C   0  0  0  0  0  0  0  0  0  0  0  0
   -8.2692   -3.9463  -26.6526 H   0  0  0  0  0  0  0  0  0  0  0  0
   -8.3152   -5.5204  -25.8192 H   0  0  0  0  0  0  0  0  0  0  0  0
   -9.8221   -4.8086  -26.4614 H   0  0  0  0  0  0  0  0  0  0  0  0
   -7.2778   -3.0677  -24.6495 H   0  0  0  0  0  0  0  0  0  0  0  0
   -7.4688   -4.5990  -23.7796 H   0  0  0  0  0  0  0  0  0  0  0  0
   -9.0007   -3.5239  -22.1844 H   0  0  0  0  0  0  0  0  0  0  0  0
   -6.1875   -2.4445  -22.5647 H   0  0  0  0  0  0  0  0  0  0  0  0
   -6.8294   -3.4091  -21.2218 H   0  0  0  0  0  0  0  0  0  0  0  0
  -10.5918   -1.5649  -22.8515 C   0  0  0  0  0  0  0  0  0  0  0  0
  -11.2346   -2.4069  -21.9329 C   0  0  0  0  0  0  0  0  0  0  0  0
  -12.6101   -2.3558  -21.7934 C   0  0  0  0  0  0  0  0  0  0  0  0
  -13.4142   -3.1790  -20.4906 Cl  0  0  0  0  0  0  0  0  0  0  0  0
  -13.3861   -1.5528  -22.6284 C   0  0  0  0  0  0  0  0  0  0  0  0
  -12.7645   -0.6702  -23.4858 C   0  0  0  0  0  0  0  0  0  0  0  0
  -11.3736   -0.6364  -23.5575 C   0  0  0  0  0  0  0  0  0  0  0  0
  -10.7519    0.5077  -24.3042 C   0  0  0  0  0  0  0  0  0  0  0  0
  -11.4297    1.4253  -24.7529 O   0  0  0  0  0  0  0  0  0  0  0  0
  -13.3143    0.0745  -24.0564 H   0  0  0  0  0  0  0  0  0  0  0  0
  -14.4618   -1.5910  -22.5481 H   0  0  0  0  0  0  0  0  0  0  0  0
  -10.6578   -3.0698  -21.2999 H   0  0  0  0  0  0  0  0  0  0  0  0
   -8.8831   -1.4710  -25.0724 H   0  0  0  0  0  0  0  0  0  0  0  0
   -7.6026   -0.5562  -24.2155 H   0  0  0  0  0  0  0  0  0  0  0  0
   -9.4331    2.3217  -25.2191 H   0  0  0  0  0  0  0  0  0  0  0  0
   -8.0323    1.3397  -25.7506 H   0  0  0  0  0  0  0  0  0  0  0  0
   -9.2777    2.8361  -22.6887 H   0  0  0  0  0  0  0  0  0  0  0  0
   -6.7155    4.1449  -22.1539 H   0  0  0  0  0  0  0  0  0  0  0  0
   -6.8201    2.5375  -21.3997 H   0  0  0  0  0  0  0  0  0  0  0  0
   -8.0268    3.8255  -21.0054 H   0  0  0  0  0  0  0  0  0  0  0  0
  1  2  1  0
  2  3  1  0
  3  4  2  0
  3  5  1  0
  5  6  1  0
  6  7  1  0
  8  7  1  6
  8  9  1  0
  9 10  2  0
  9 11  1  0
 11 12  1  0
 12 13  2  0
 13 14  1  0
 14 15  2  0
 15 16  1  0
 16 17  2  0
 17 18  1  0
 18 19  2  0
 19 20  1  0
 20 21  2  0
 20 22  1  0
 19 23  1  0
 18 24  1  0
 17 25  1  0
 15 26  1  0
 13 27  1  0
 11 28  1  0
 28 29  1  0
 29 30  1  0
 30 31  1  0
 31 32  1  0
 32 33  1  0
 32 34  1  0
 32 35  1  0
 30 36  1  0
 30 37  1  0
 29 38  1  1
 28 39  1  0
 28 40  1  0
  8 41  1  0
 41 42  2  0
 42 43  1  0
 43 44  1  0
 43 45  2  0
 45 46  1  0
 46 47  2  0
 47 48  1  0
 48 49  2  0
 46 50  1  0
 45 51  1  0
 42 52  1  0
  7 53  1  0
  7 54  1  0
  5 55  1  0
  5 56  1  0
  2 57  1  0
  1 58  1  0
  1 59  1  0
  1 60  1  0
 48  6  1  0
 29  8  1  0
 47 41  1  0
 21 12  1  0
 21 16  1  0
M  END
>  <cnnaffinities>  (42) 
[6.08945, 6.09437, 5.78432, 6.39837]

>  <score>  (42) 
6.08945

>  <index>  (42) 
44

>  <Smiles>  (42) 
C(N(C(=O)C(N1C([C@@]2(C(=O)N(c3c(nc(c4c(c(c(c(c34)[H])[H])[H])[H])[H])[H])C([C@@]2(C(OC([H])([H])[H])([H])[H])[H])([H])[H])c2c(c(Cl)c(c(c2C1=O)[H])[H])[H])([H])[H])([H])[H])[H])([H])([H])[H]

>  <h>  (42) 
<NA>

>  <Training>  (42) 
True

>  <Success>  (42) 
True

>  <enamine_searched>  (42) 
False

>  <enamine_id>  (42) 
nan

$$$$

     RDKit          3D

 66 71  0  0  0  0  0  0  0  0999 V2000
   -7.4316    3.3680  -21.7914 C   0  0  0  0  0  0  0  0  0  0  0  0
   -8.3169    2.9153  -22.8448 N   0  0  0  0  0  0  0  0  0  0  0  0
   -7.7578    2.2208  -23.8649 C   0  0  0  0  0  0  0  0  0  0  0  0
   -6.5476    2.1036  -23.9849 O   0  0  0  0  0  0  0  0  0  0  0  0
   -8.7025    1.5940  -24.8865 C   0  0  0  0  0  0  0  0  0  0  0  0
   -9.4136    0.4406  -24.3673 N   0  0  0  0  0  0  0  0  0  0  0  0
   -8.6850   -0.8029  -24.2016 C   0  0  0  0  0  0  0  0  0  0  0  0
   -9.0791   -1.5281  -22.8894 C   0  0  2  0  0  0  0  0  0  0  0  0
   -8.5308   -0.7456  -21.6682 C   0  0  0  0  0  0  0  0  0  0  0  0
   -8.9929    0.2657  -21.1793 O   0  0  0  0  0  0  0  0  0  0  0  0
   -7.3994   -1.3802  -21.2051 N   0  0  0  0  0  0  0  0  0  0  0  0
   -6.6049   -0.8096  -20.1733 C   0  0  0  0  0  0  0  0  0  0  0  0
   -6.9113   -1.0501  -18.8572 C   0  0  0  0  0  0  0  0  0  0  0  0
   -6.2085   -0.5605  -17.8063 N   0  0  0  0  0  0  0  0  0  0  0  0
   -5.1752    0.2020  -18.0721 C   0  0  0  0  0  0  0  0  0  0  0  0
   -4.7437    0.5416  -19.3864 C   0  0  0  0  0  0  0  0  0  0  0  0
   -3.6188    1.3773  -19.6289 C   0  0  0  0  0  0  0  0  0  0  0  0
   -3.2427    1.6884  -20.9066 C   0  0  0  0  0  0  0  0  0  0  0  0
   -3.9848    1.1916  -22.0022 C   0  0  0  0  0  0  0  0  0  0  0  0
   -5.0713    0.3733  -21.7941 C   0  0  0  0  0  0  0  0  0  0  0  0
   -5.4840    0.0266  -20.4807 C   0  0  0  0  0  0  0  0  0  0  0  0
   -5.6077   -0.0286  -22.6504 H   0  0  0  0  0  0  0  0  0  0  0  0
   -3.6845    1.4232  -23.0186 H   0  0  0  0  0  0  0  0  0  0  0  0
   -2.3727    2.3147  -21.0880 H   0  0  0  0  0  0  0  0  0  0  0  0
   -3.0704    1.7601  -18.7706 H   0  0  0  0  0  0  0  0  0  0  0  0
   -4.6213    0.6038  -17.2227 H   0  0  0  0  0  0  0  0  0  0  0  0
   -7.7692   -1.6721  -18.6086 H   0  0  0  0  0  0  0  0  0  0  0  0
   -7.0554   -2.5854  -21.9322 C   0  0  0  0  0  0  0  0  0  0  0  0
   -8.3287   -2.8915  -22.7492 C   0  0  2  0  0  0  0  0  0  0  0  0
   -8.0197   -3.6727  -24.0461 C   0  0  0  0  0  0  0  0  0  0  0  0
   -7.4767   -5.0614  -23.7748 C   0  0  0  0  0  0  0  0  0  0  0  0
   -8.3520   -6.1167  -23.5009 C   0  0  0  0  0  0  0  0  0  0  0  0
   -7.8737   -7.3926  -23.2157 C   0  0  0  0  0  0  0  0  0  0  0  0
   -6.5022   -7.6371  -23.1963 C   0  0  0  0  0  0  0  0  0  0  0  0
   -5.6170   -6.5963  -23.4700 C   0  0  0  0  0  0  0  0  0  0  0  0
   -6.1023   -5.3208  -23.7542 C   0  0  0  0  0  0  0  0  0  0  0  0
   -5.4013   -4.5124  -23.9655 H   0  0  0  0  0  0  0  0  0  0  0  0
   -4.5440   -6.7814  -23.4609 H   0  0  0  0  0  0  0  0  0  0  0  0
   -6.1264   -8.6340  -22.9701 H   0  0  0  0  0  0  0  0  0  0  0  0
   -8.5770   -8.1982  -23.0099 H   0  0  0  0  0  0  0  0  0  0  0  0
   -9.4270   -5.9353  -23.5140 H   0  0  0  0  0  0  0  0  0  0  0  0
   -8.9393   -3.7537  -24.6439 H   0  0  0  0  0  0  0  0  0  0  0  0
   -7.2912   -3.1110  -24.6491 H   0  0  0  0  0  0  0  0  0  0  0  0
   -8.9743   -3.5275  -22.1375 H   0  0  0  0  0  0  0  0  0  0  0  0
   -6.7940   -3.4020  -21.2460 H   0  0  0  0  0  0  0  0  0  0  0  0
   -6.1847   -2.4131  -22.5874 H   0  0  0  0  0  0  0  0  0  0  0  0
  -10.5981   -1.5879  -22.8228 C   0  0  0  0  0  0  0  0  0  0  0  0
  -11.2311   -2.4350  -21.9066 C   0  0  0  0  0  0  0  0  0  0  0  0
  -12.6095   -2.3879  -21.7742 C   0  0  0  0  0  0  0  0  0  0  0  0
  -13.3874   -3.2194  -20.4593 Cl  0  0  0  0  0  0  0  0  0  0  0  0
  -13.4017   -1.5851  -22.5960 C   0  0  0  0  0  0  0  0  0  0  0  0
  -12.7805   -0.7159  -23.4618 C   0  0  0  0  0  0  0  0  0  0  0  0
  -11.3923   -0.6775  -23.5357 C   0  0  0  0  0  0  0  0  0  0  0  0
  -10.7791    0.4750  -24.2749 C   0  0  0  0  0  0  0  0  0  0  0  0
  -11.4575    1.3961  -24.7115 O   0  0  0  0  0  0  0  0  0  0  0  0
  -13.3202    0.0152  -24.0514 H   0  0  0  0  0  0  0  0  0  0  0  0
  -14.4812   -1.6346  -22.5325 H   0  0  0  0  0  0  0  0  0  0  0  0
  -10.6563   -3.1313  -21.3026 H   0  0  0  0  0  0  0  0  0  0  0  0
   -8.8986   -1.4736  -25.0492 H   0  0  0  0  0  0  0  0  0  0  0  0
   -7.6166   -0.5547  -24.1990 H   0  0  0  0  0  0  0  0  0  0  0  0
   -9.4843    2.2956  -25.1855 H   0  0  0  0  0  0  0  0  0  0  0  0
   -8.0750    1.3155  -25.7449 H   0  0  0  0  0  0  0  0  0  0  0  0
   -9.3010    2.7898  -22.6454 H   0  0  0  0  0  0  0  0  0  0  0  0
   -6.7350    4.1146  -22.1832 H   0  0  0  0  0  0  0  0  0  0  0  0
   -8.0216    3.8026  -20.9873 H   0  0  0  0  0  0  0  0  0  0  0  0
   -6.8360    2.5246  -21.4188 H   0  0  0  0  0  0  0  0  0  0  0  0
  1  2  1  0
  2  3  1  0
  3  4  2  0
  3  5  1  0
  5  6  1  0
  6  7  1  0
  8  7  1  6
  8  9  1  0
  9 10  2  0
  9 11  1  0
 11 12  1  0
 12 13  2  0
 13 14  1  0
 14 15  2  0
 15 16  1  0
 16 17  2  0
 17 18  1  0
 18 19  2  0
 19 20  1  0
 20 21  2  0
 20 22  1  0
 19 23  1  0
 18 24  1  0
 17 25  1  0
 15 26  1  0
 13 27  1  0
 11 28  1  0
 28 29  1  0
 29 30  1  0
 30 31  1  0
 31 32  2  0
 32 33  1  0
 33 34  2  0
 34 35  1  0
 35 36  2  0
 36 37  1  0
 35 38  1  0
 34 39  1  0
 33 40  1  0
 32 41  1  0
 30 42  1  0
 30 43  1  0
 29 44  1  1
 28 45  1  0
 28 46  1  0
  8 47  1  0
 47 48  2  0
 48 49  1  0
 49 50  1  0
 49 51  2  0
 51 52  1  0
 52 53  2  0
 53 54  1  0
 54 55  2  0
 52 56  1  0
 51 57  1  0
 48 58  1  0
  7 59  1  0
  7 60  1  0
  5 61  1  0
  5 62  1  0
  2 63  1  0
  1 64  1  0
  1 65  1  0
  1 66  1  0
 54  6  1  0
 29  8  1  0
 36 31  1  0
 53 47  1  0
 21 12  1  0
 21 16  1  0
M  END
>  <cnnaffinities>  (43) 
[6.96544, 6.9492]

>  <score>  (43) 
6.96544

>  <index>  (43) 
45

>  <Smiles>  (43) 
C(N(C(=O)C(N1C([C@@]2(C(=O)N(c3c(nc(c4c(c(c(c(c34)[H])[H])[H])[H])[H])[H])C([C@@]2(C(c2c(c(c(c(c2[H])[H])[H])[H])[H])([H])[H])[H])([H])[H])c2c(c(Cl)c(c(c2C1=O)[H])[H])[H])([H])[H])([H])[H])[H])([H])([H])[H]

>  <h>  (43) 
<NA>

>  <Training>  (43) 
True

>  <Success>  (43) 
True

>  <enamine_searched>  (43) 
False

>  <enamine_id>  (43) 
nan

$$$$

     RDKit          3D

 50 54  0  0  0  0  0  0  0  0999 V2000
  -10.5100   -2.5334  -22.6369 C   0  0  0  0  0  0  0  0  0  0  0  0
   -9.0975   -1.9668  -22.6545 C   0  0  1  0  0  0  0  0  0  0  0  0
   -8.7518   -1.3777  -21.2830 C   0  0  0  0  0  0  0  0  0  0  0  0
   -7.3047   -1.4176  -21.2604 N   0  0  0  0  0  0  0  0  0  0  0  0
   -6.5658   -0.8376  -20.2123 C   0  0  0  0  0  0  0  0  0  0  0  0
   -6.9200   -1.0655  -18.9084 C   0  0  0  0  0  0  0  0  0  0  0  0
   -6.2544   -0.5750  -17.8376 N   0  0  0  0  0  0  0  0  0  0  0  0
   -5.2142    0.1904  -18.0683 C   0  0  0  0  0  0  0  0  0  0  0  0
   -4.7677    0.5410  -19.3739 C   0  0  0  0  0  0  0  0  0  0  0  0
   -3.6434    1.3856  -19.5814 C   0  0  0  0  0  0  0  0  0  0  0  0
   -3.2829    1.7565  -20.8471 C   0  0  0  0  0  0  0  0  0  0  0  0
   -4.0266    1.3079  -21.9642 C   0  0  0  0  0  0  0  0  0  0  0  0
   -5.0975    0.4650  -21.7928 C   0  0  0  0  0  0  0  0  0  0  0  0
   -5.4736    0.0399  -20.4883 C   0  0  0  0  0  0  0  0  0  0  0  0
   -5.6483    0.0868  -22.6510 H   0  0  0  0  0  0  0  0  0  0  0  0
   -3.7341    1.6088  -22.9655 H   0  0  0  0  0  0  0  0  0  0  0  0
   -2.4285    2.4106  -21.0086 H   0  0  0  0  0  0  0  0  0  0  0  0
   -3.0962    1.7438  -18.7118 H   0  0  0  0  0  0  0  0  0  0  0  0
   -4.6741    0.5862  -17.2053 H   0  0  0  0  0  0  0  0  0  0  0  0
   -7.7659   -1.7099  -18.6715 H   0  0  0  0  0  0  0  0  0  0  0  0
   -6.7864   -2.3663  -22.1246 C   0  0  0  0  0  0  0  0  0  0  0  0
   -5.6260   -2.7277  -22.1540 O   0  0  0  0  0  0  0  0  0  0  0  0
   -7.9169   -2.9497  -22.9851 C   0  0  1  0  0  0  0  0  0  0  0  0
   -8.1390   -4.3864  -22.4333 C   0  0  0  0  0  0  0  0  0  0  0  0
   -8.9467   -5.2168  -23.2942 N   0  0  0  0  0  0  0  0  0  0  0  0
   -9.7598   -6.2652  -22.7286 C   0  0  0  0  0  0  0  0  0  0  0  0
   -9.3226   -7.6027  -23.1687 C   0  0  0  0  0  0  0  0  0  0  0  0
   -8.9950   -8.6475  -23.5362 N   0  0  0  0  0  0  0  0  0  0  0  0
   -9.6750   -6.1850  -21.6438 H   0  0  0  0  0  0  0  0  0  0  0  0
  -10.8031   -6.1220  -23.0272 H   0  0  0  0  0  0  0  0  0  0  0  0
   -8.9109   -5.1490  -24.6512 C   0  0  0  0  0  0  0  0  0  0  0  0
   -9.5926   -5.8998  -25.3401 O   0  0  0  0  0  0  0  0  0  0  0  0
   -8.0208   -4.1096  -25.2362 C   0  0  0  0  0  0  0  0  0  0  0  0
   -7.7440   -4.2235  -26.5970 C   0  0  0  0  0  0  0  0  0  0  0  0
   -6.9802   -3.2732  -27.2365 C   0  0  0  0  0  0  0  0  0  0  0  0
   -6.5136   -2.2075  -26.4774 C   0  0  0  0  0  0  0  0  0  0  0  0
   -5.7801   -1.2705  -27.0990 F   0  0  0  0  0  0  0  0  0  0  0  0
   -6.7602   -2.0708  -25.1224 C   0  0  0  0  0  0  0  0  0  0  0  0
   -7.5447   -3.0378  -24.4652 C   0  0  0  0  0  0  0  0  0  0  0  0
   -6.3131   -1.2209  -24.6107 H   0  0  0  0  0  0  0  0  0  0  0  0
   -6.7692   -3.3445  -28.2970 H   0  0  0  0  0  0  0  0  0  0  0  0
   -8.1438   -5.0766  -27.1380 H   0  0  0  0  0  0  0  0  0  0  0  0
   -7.1568   -4.8362  -22.2421 H   0  0  0  0  0  0  0  0  0  0  0  0
   -8.6500   -4.3236  -21.4694 H   0  0  0  0  0  0  0  0  0  0  0  0
   -9.1913   -1.9832  -20.4773 H   0  0  0  0  0  0  0  0  0  0  0  0
   -9.1251   -0.3583  -21.1507 H   0  0  0  0  0  0  0  0  0  0  0  0
   -9.0247   -1.1586  -23.3922 H   0  0  0  0  0  0  0  0  0  0  0  0
  -10.6206   -3.2451  -21.8131 H   0  0  0  0  0  0  0  0  0  0  0  0
  -11.2455   -1.7382  -22.4761 H   0  0  0  0  0  0  0  0  0  0  0  0
  -10.7594   -3.0574  -23.5596 H   0  0  0  0  0  0  0  0  0  0  0  0
  1  2  1  0
  2  3  1  0
  3  4  1  0
  4  5  1  0
  5  6  2  0
  6  7  1  0
  7  8  2  0
  8  9  1  0
  9 10  2  0
 10 11  1  0
 11 12  2  0
 12 13  1  0
 13 14  2  0
 13 15  1  0
 12 16  1  0
 11 17  1  0
 10 18  1  0
  8 19  1  0
  6 20  1  0
  4 21  1  0
 21 22  2  0
 21 23  1  0
 23 24  1  1
 24 25  1  0
 25 26  1  0
 26 27  1  0
 27 28  3  0
 26 29  1  0
 26 30  1  0
 25 31  1  0
 31 32  2  0
 31 33  1  0
 33 34  2  0
 34 35  1  0
 35 36  2  0
 36 37  1  0
 36 38  1  0
 38 39  2  0
 38 40  1  0
 35 41  1  0
 34 42  1  0
 24 43  1  0
 24 44  1  0
  3 45  1  0
  3 46  1  0
  2 47  1  6
  1 48  1  0
  1 49  1  0
  1 50  1  0
 23  2  1  0
 39 33  1  0
 14  5  1  0
 39 23  1  0
 14  9  1  0
M  END
>  <cnnaffinities>  (44) 
[5.80669, 5.44127]

>  <score>  (44) 
5.80669

>  <index>  (44) 
46

>  <Smiles>  (44) 
C([C@]1(C(N(c2c(nc(c3c(c(c(c(c23)[H])[H])[H])[H])[H])[H])C(=O)[C@]21C(N(C(C#N)([H])[H])C(=O)c1c(c(c(F)c(c21)[H])[H])[H])([H])[H])([H])[H])[H])([H])([H])[H]

>  <h>  (44) 
<NA>

>  <Training>  (44) 
True

>  <Success>  (44) 
True

>  <enamine_searched>  (44) 
False

>  <enamine_id>  (44) 
nan

$$$$

     RDKit          3D

 58 63  0  0  0  0  0  0  0  0999 V2000
   -8.9658    0.4547  -21.0632 O   0  0  0  0  0  0  0  0  0  0  0  0
   -8.3069   -0.2373  -21.8208 C   0  0  0  0  0  0  0  0  0  0  0  0
   -7.4631   -1.3754  -21.2614 C   0  0  0  0  0  0  0  0  0  0  0  0
   -6.5870   -0.8286  -20.1594 C   0  0  0  0  0  0  0  0  0  0  0  0
   -6.8831   -1.0611  -18.8443 C   0  0  0  0  0  0  0  0  0  0  0  0
   -6.1971   -0.5672  -17.7810 N   0  0  0  0  0  0  0  0  0  0  0  0
   -5.1762    0.2106  -18.0492 C   0  0  0  0  0  0  0  0  0  0  0  0
   -4.7540    0.5524  -19.3631 C   0  0  0  0  0  0  0  0  0  0  0  0
   -3.6344    1.3922  -19.5945 C   0  0  0  0  0  0  0  0  0  0  0  0
   -3.2605    1.7192  -20.8693 C   0  0  0  0  0  0  0  0  0  0  0  0
   -4.0063    1.2327  -21.9647 C   0  0  0  0  0  0  0  0  0  0  0  0
   -5.0921    0.4141  -21.7669 C   0  0  0  0  0  0  0  0  0  0  0  0
   -5.4902    0.0352  -20.4559 C   0  0  0  0  0  0  0  0  0  0  0  0
   -5.6396    0.0437  -22.6303 H   0  0  0  0  0  0  0  0  0  0  0  0
   -3.6976    1.4848  -22.9770 H   0  0  0  0  0  0  0  0  0  0  0  0
   -2.3967    2.3521  -21.0474 H   0  0  0  0  0  0  0  0  0  0  0  0
   -3.0857    1.7681  -18.7340 H   0  0  0  0  0  0  0  0  0  0  0  0
   -4.6223    0.6137  -17.2005 H   0  0  0  0  0  0  0  0  0  0  0  0
   -7.7349   -1.6917  -18.5879 H   0  0  0  0  0  0  0  0  0  0  0  0
   -6.8735   -1.8389  -22.0556 H   0  0  0  0  0  0  0  0  0  0  0  0
   -8.1497   -2.1335  -20.8642 H   0  0  0  0  0  0  0  0  0  0  0  0
   -8.2403    0.0129  -23.1871 N   0  0  0  0  0  0  0  0  0  0  0  0
   -8.1262   -1.0477  -24.1966 C   0  0  0  0  0  0  0  0  0  0  0  0
   -9.2151   -2.0915  -24.0092 C   0  0  0  0  0  0  0  0  0  0  0  0
   -8.9400   -3.4304  -23.7338 C   0  0  0  0  0  0  0  0  0  0  0  0
   -9.9535   -4.2981  -23.3463 C   0  0  0  0  0  0  0  0  0  0  0  0
  -11.2653   -3.8579  -23.2077 C   0  0  0  0  0  0  0  0  0  0  0  0
  -11.5477   -2.5343  -23.5493 C   0  0  0  0  0  0  0  0  0  0  0  0
  -13.1934   -1.9590  -23.5737 Cl  0  0  0  0  0  0  0  0  0  0  0  0
  -10.5476   -1.6711  -23.9705 C   0  0  0  0  0  0  0  0  0  0  0  0
  -10.8304   -0.6614  -24.2492 H   0  0  0  0  0  0  0  0  0  0  0  0
  -12.0362   -4.5444  -22.8817 H   0  0  0  0  0  0  0  0  0  0  0  0
   -9.7010   -5.3373  -23.1595 H   0  0  0  0  0  0  0  0  0  0  0  0
   -7.9116   -3.7867  -23.7696 H   0  0  0  0  0  0  0  0  0  0  0  0
   -7.1336   -1.5109  -24.1535 H   0  0  0  0  0  0  0  0  0  0  0  0
   -8.1773   -0.5586  -25.1711 H   0  0  0  0  0  0  0  0  0  0  0  0
   -8.4817    1.3828  -23.5534 C   0  0  2  0  0  0  0  0  0  0  0  0
   -7.4356    2.4157  -23.0877 C   0  0  0  0  0  0  0  0  0  0  0  0
   -8.0730    3.6681  -23.6417 N   0  0  1  0  0  4  0  0  0  0  0  0
   -7.2209    4.4825  -24.5137 C   0  0  0  0  0  0  0  0  0  0  0  0
   -6.3769    5.5376  -23.8797 C   0  0  0  0  0  0  0  0  0  0  0  0
   -7.5869    5.9188  -24.6968 C   0  0  0  0  0  0  0  0  0  0  0  0
   -8.4731    6.2599  -24.1674 H   0  0  0  0  0  0  0  0  0  0  0  0
   -7.4379    6.3649  -25.6738 H   0  0  0  0  0  0  0  0  0  0  0  0
   -6.4479    5.6063  -22.7976 H   0  0  0  0  0  0  0  0  0  0  0  0
   -5.3908    5.7259  -24.2896 H   0  0  0  0  0  0  0  0  0  0  0  0
   -6.8142    3.9505  -25.3642 H   0  0  0  0  0  0  0  0  0  0  0  0
   -9.2909    3.0646  -24.3171 C   0  0  2  0  0  0  0  0  0  0  0  0
   -9.7934    2.1400  -23.2097 C   0  0  0  0  0  0  0  0  0  0  0  0
   -9.8430    2.5709  -22.2095 H   0  0  0  0  0  0  0  0  0  0  0  0
  -10.6953    1.5809  -23.4566 H   0  0  0  0  0  0  0  0  0  0  0  0
   -8.7179    1.8196  -25.0061 C   0  0  0  0  0  0  0  0  0  0  0  0
   -7.8424    1.9300  -25.6567 H   0  0  0  0  0  0  0  0  0  0  0  0
   -9.4940    1.2191  -25.4711 H   0  0  0  0  0  0  0  0  0  0  0  0
   -9.9102    3.7915  -24.8244 H   0  0  0  0  0  0  0  0  0  0  0  0
   -8.3950    4.2639  -22.8533 H   0  0  0  0  0  0  0  0  0  0  0  0
   -6.4491    2.2831  -23.5311 H   0  0  0  0  0  0  0  0  0  0  0  0
   -7.3544    2.4648  -21.9998 H   0  0  0  0  0  0  0  0  0  0  0  0
  1  2  2  0
  2  3  1  0
  3  4  1  0
  4  5  2  0
  5  6  1  0
  6  7  2  0
  7  8  1  0
  8  9  2  0
  9 10  1  0
 10 11  2  0
 11 12  1  0
 12 13  2  0
 12 14  1  0
 11 15  1  0
 10 16  1  0
  9 17  1  0
  7 18  1  0
  5 19  1  0
  3 20  1  0
  3 21  1  0
  2 22  1  0
 22 23  1  0
 23 24  1  0
 24 25  2  0
 25 26  1  0
 26 27  2  0
 27 28  1  0
 28 29  1  0
 28 30  2  0
 30 31  1  0
 27 32  1  0
 26 33  1  0
 25 34  1  0
 23 35  1  0
 23 36  1  0
 37 22  1  6
 37 38  1  0
 38 39  1  0
 39 40  1  0
 40 41  1  0
 41 42  1  0
 42 43  1  0
 42 44  1  0
 41 45  1  0
 41 46  1  0
 40 47  1  0
 39 48  1  0
 48 49  1  0
 49 50  1  0
 49 51  1  0
 48 52  1  0
 52 53  1  0
 52 54  1  0
 48 55  1  6
 39 56  1  1
 38 57  1  0
 38 58  1  0
 13  4  1  0
 30 24  1  0
 49 37  1  0
 13  8  1  0
 52 37  1  0
 42 40  1  0
M  CHG  1  39   1
M  END
>  <cnnaffinities>  (45) 
[5.91372, 5.64638, 5.93249]

>  <score>  (45) 
5.91372

>  <index>  (45) 
47

>  <Smiles>  (45) 
O=C(C(c1c(nc(c2c(c(c(c(c12)[H])[H])[H])[H])[H])[H])([H])[H])N(C(c1c(c(c(c(Cl)c1[H])[H])[H])[H])([H])[H])[C@]12C([N@@+](C3(C(C3([H])[H])([H])[H])[H])([C@](C1([H])[H])(C2([H])[H])[H])[H])([H])[H]

>  <h>  (45) 
<NA>

>  <Training>  (45) 
True

>  <Success>  (45) 
True

>  <enamine_searched>  (45) 
False

>  <enamine_id>  (45) 
nan

$$$$

     RDKit          3D

 46 48  0  0  0  0  0  0  0  0999 V2000
   -9.7998   -5.8635  -26.7277 C   0  0  0  0  0  0  0  0  0  0  0  0
   -9.4881   -6.4223  -25.3376 C   0  0  0  0  0  0  0  0  0  0  0  0
   -8.9235   -7.8362  -25.4775 C   0  0  0  0  0  0  0  0  0  0  0  0
   -9.5186   -8.4309  -26.1797 H   0  0  0  0  0  0  0  0  0  0  0  0
   -7.9004   -7.8151  -25.8694 H   0  0  0  0  0  0  0  0  0  0  0  0
   -8.9107   -8.3800  -24.5286 H   0  0  0  0  0  0  0  0  0  0  0  0
   -8.5526   -5.4770  -24.5406 C   0  0  0  0  0  0  0  0  0  0  0  0
   -8.0889   -6.0303  -23.1973 C   0  0  0  0  0  0  0  0  0  0  0  0
   -7.1048   -5.0834  -22.5105 C   0  0  0  0  0  0  0  0  0  0  0  0
   -7.5857   -3.6980  -22.4435 N   0  0  0  0  0  0  0  0  0  0  0  0
   -6.7860   -2.7812  -21.8060 C   0  0  0  0  0  0  0  0  0  0  0  0
   -5.5979   -2.9991  -21.6399 O   0  0  0  0  0  0  0  0  0  0  0  0
   -7.4226   -1.4789  -21.2580 C   0  0  0  0  0  0  0  0  0  0  0  0
   -6.5811   -0.8281  -20.1813 C   0  0  0  0  0  0  0  0  0  0  0  0
   -6.8727   -1.0445  -18.8590 C   0  0  0  0  0  0  0  0  0  0  0  0
   -6.1869   -0.5457  -17.7983 N   0  0  0  0  0  0  0  0  0  0  0  0
   -5.1566    0.2225  -18.0626 C   0  0  0  0  0  0  0  0  0  0  0  0
   -4.7214    0.5339  -19.3797 C   0  0  0  0  0  0  0  0  0  0  0  0
   -3.5919    1.3610  -19.6160 C   0  0  0  0  0  0  0  0  0  0  0  0
   -3.1960    1.6481  -20.8959 C   0  0  0  0  0  0  0  0  0  0  0  0
   -3.9299    1.1358  -21.9851 C   0  0  0  0  0  0  0  0  0  0  0  0
   -5.0178    0.3177  -21.7812 C   0  0  0  0  0  0  0  0  0  0  0  0
   -5.4481   -0.0052  -20.4699 C   0  0  0  0  0  0  0  0  0  0  0  0
   -5.5160   -0.1316  -22.6335 H   0  0  0  0  0  0  0  0  0  0  0  0
   -3.5799    1.3167  -22.9970 H   0  0  0  0  0  0  0  0  0  0  0  0
   -2.3252    2.2712  -21.0841 H   0  0  0  0  0  0  0  0  0  0  0  0
   -3.0518    1.7734  -18.7672 H   0  0  0  0  0  0  0  0  0  0  0  0
   -4.6008    0.6287  -17.2157 H   0  0  0  0  0  0  0  0  0  0  0  0
   -7.7203   -1.6705  -18.5862 H   0  0  0  0  0  0  0  0  0  0  0  0
   -7.5838   -0.7738  -22.0852 H   0  0  0  0  0  0  0  0  0  0  0  0
   -8.4173   -1.7015  -20.8433 H   0  0  0  0  0  0  0  0  0  0  0  0
   -8.9240   -3.4482  -22.9465 C   0  0  0  0  0  0  0  0  0  0  0  0
   -9.1658   -4.0818  -24.3213 C   0  0  0  0  0  0  0  0  0  0  0  0
  -10.2426   -4.1618  -24.4174 H   0  0  0  0  0  0  0  0  0  0  0  0
   -8.8324   -3.3984  -25.1096 H   0  0  0  0  0  0  0  0  0  0  0  0
   -9.6793   -3.8213  -22.2405 H   0  0  0  0  0  0  0  0  0  0  0  0
   -9.0852   -2.3713  -23.0287 H   0  0  0  0  0  0  0  0  0  0  0  0
   -6.1442   -5.1075  -23.0359 H   0  0  0  0  0  0  0  0  0  0  0  0
   -6.8974   -5.4510  -21.4989 H   0  0  0  0  0  0  0  0  0  0  0  0
   -7.5890   -6.9939  -23.3340 H   0  0  0  0  0  0  0  0  0  0  0  0
   -8.9497   -6.2379  -22.5502 H   0  0  0  0  0  0  0  0  0  0  0  0
   -7.6501   -5.3420  -25.1496 H   0  0  0  0  0  0  0  0  0  0  0  0
  -10.4354   -6.5021  -24.7888 H   0  0  0  0  0  0  0  0  0  0  0  0
  -10.2864   -4.8865  -26.6889 H   0  0  0  0  0  0  0  0  0  0  0  0
   -8.8822   -5.7498  -27.3161 H   0  0  0  0  0  0  0  0  0  0  0  0
  -10.4590   -6.5383  -27.2861 H   0  0  0  0  0  0  0  0  0  0  0  0
  1  2  1  0
  2  3  1  0
  3  4  1  0
  3  5  1  0
  3  6  1  0
  2  7  1  0
  7  8  1  0
  8  9  1  0
  9 10  1  0
 10 11  1  0
 11 12  2  0
 11 13  1  0
 13 14  1  0
 14 15  2  0
 15 16  1  0
 16 17  2  0
 17 18  1  0
 18 19  2  0
 19 20  1  0
 20 21  2  0
 21 22  1  0
 22 23  2  0
 22 24  1  0
 21 25  1  0
 20 26  1  0
 19 27  1  0
 17 28  1  0
 15 29  1  0
 13 30  1  0
 13 31  1  0
 10 32  1  0
 32 33  1  0
 33 34  1  0
 33 35  1  0
 32 36  1  0
 32 37  1  0
  9 38  1  0
  9 39  1  0
  8 40  1  0
  8 41  1  0
  7 42  1  0
  2 43  1  0
  1 44  1  0
  1 45  1  0
  1 46  1  0
 33  7  1  0
 23 14  1  0
 23 18  1  0
M  END
>  <cnnaffinities>  (46) 
[4.54708, 4.54674, 4.54666, 4.50502, 4.61496, 4.62504, 4.62503, 4.625, 4.55788, 4.60715, 4.60713, 4.52284, 4.52282, 4.52281, 4.94007, 4.68955, 4.94892, 4.95804, 4.95285, 4.68428, 4.6844, 4.68459, 4.82913, 4.74754, 4.75339, 4.75427]

>  <score>  (46) 
4.54708

>  <index>  (46) 
48

>  <Smiles>  (46) 
C(C(C([H])([H])[H])(C1(C(C(N(C(=O)C(c2c(nc(c3c(c(c(c(c23)[H])[H])[H])[H])[H])[H])([H])[H])C(C1([H])[H])([H])[H])([H])[H])([H])[H])[H])[H])([H])([H])[H]

>  <h>  (46) 
<NA>

>  <Training>  (46) 
True

>  <Success>  (46) 
True

>  <enamine_searched>  (46) 
False

>  <enamine_id>  (46) 
nan

$$$$

     RDKit          3D

 67 72  0  0  0  0  0  0  0  0999 V2000
   -7.2585    3.4133  -21.9832 C   0  0  0  0  0  0  0  0  0  0  0  0
   -8.1422    2.9052  -23.0138 N   0  0  0  0  0  0  0  0  0  0  0  0
   -7.6018    2.2376  -24.0678 C   0  0  0  0  0  0  0  0  0  0  0  0
   -6.3965    2.1007  -24.2138 O   0  0  0  0  0  0  0  0  0  0  0  0
   -8.6156    1.6518  -25.0541 C   0  0  0  0  0  0  0  0  0  0  0  0
   -9.3173    0.5315  -24.4477 N   0  0  0  0  0  0  0  0  0  0  0  0
   -8.5665   -0.6851  -24.1700 C   0  0  0  0  0  0  0  0  0  0  0  0
   -9.0232   -1.4087  -22.8681 C   0  0  2  0  0  0  0  0  0  0  0  0
   -8.5435   -0.6095  -21.6308 C   0  0  0  0  0  0  0  0  0  0  0  0
   -9.0206    0.4092  -21.1795 O   0  0  0  0  0  0  0  0  0  0  0  0
   -7.4550   -1.2517  -21.0956 N   0  0  0  0  0  0  0  0  0  0  0  0
   -6.6587   -0.6911  -20.0825 C   0  0  0  0  0  0  0  0  0  0  0  0
   -6.9404   -0.9943  -18.7818 C   0  0  0  0  0  0  0  0  0  0  0  0
   -6.2119   -0.5513  -17.7334 N   0  0  0  0  0  0  0  0  0  0  0  0
   -5.1753    0.2063  -18.0026 C   0  0  0  0  0  0  0  0  0  0  0  0
   -4.7612    0.5715  -19.3167 C   0  0  0  0  0  0  0  0  0  0  0  0
   -3.6320    1.3962  -19.5657 C   0  0  0  0  0  0  0  0  0  0  0  0
   -3.2968    1.7528  -20.8435 C   0  0  0  0  0  0  0  0  0  0  0  0
   -4.0730    1.3083  -21.9392 C   0  0  0  0  0  0  0  0  0  0  0  0
   -5.1570    0.4901  -21.7279 C   0  0  0  0  0  0  0  0  0  0  0  0
   -5.5290    0.1089  -20.4081 C   0  0  0  0  0  0  0  0  0  0  0  0
   -5.7613    0.1744  -22.5746 H   0  0  0  0  0  0  0  0  0  0  0  0
   -3.8318    1.6264  -22.9496 H   0  0  0  0  0  0  0  0  0  0  0  0
   -2.4396    2.3943  -21.0268 H   0  0  0  0  0  0  0  0  0  0  0  0
   -3.0637    1.7522  -18.7109 H   0  0  0  0  0  0  0  0  0  0  0  0
   -4.6029    0.5775  -17.1525 H   0  0  0  0  0  0  0  0  0  0  0  0
   -7.7945   -1.6311  -18.5578 H   0  0  0  0  0  0  0  0  0  0  0  0
   -7.0390   -2.4364  -21.7858 C   0  0  0  0  0  0  0  0  0  0  0  0
   -8.2565   -2.7608  -22.6529 C   0  0  2  0  0  0  0  0  0  0  0  0
   -7.7901   -3.5123  -23.8854 C   0  0  0  0  0  0  0  0  0  0  0  0
   -8.9126   -3.9514  -24.6612 N   0  0  0  0  0  0  0  0  0  0  0  0
   -8.6944   -4.7891  -25.7228 C   0  0  0  0  0  0  0  0  0  0  0  0
   -7.5069   -5.0394  -26.3464 C   0  0  0  0  0  0  0  0  0  0  0  0
   -7.5690   -5.7908  -27.4989 N   0  0  0  0  0  0  0  0  0  0  0  0
   -8.7930   -6.1125  -27.7517 C   0  0  0  0  0  0  0  0  0  0  0  0
   -9.2921   -6.6757  -29.0350 C   0  0  0  0  0  0  0  0  0  0  0  0
   -9.7489   -5.8602  -29.6012 H   0  0  0  0  0  0  0  0  0  0  0  0
   -8.4750   -7.1383  -29.5917 H   0  0  0  0  0  0  0  0  0  0  0  0
  -10.0837   -7.3978  -28.8734 H   0  0  0  0  0  0  0  0  0  0  0  0
   -9.9727   -5.6340  -26.5492 S   0  0  0  0  0  0  0  0  0  0  0  0
   -6.5365   -4.7028  -25.9993 H   0  0  0  0  0  0  0  0  0  0  0  0
   -9.8458   -3.6665  -24.3998 H   0  0  0  0  0  0  0  0  0  0  0  0
   -7.1195   -2.8653  -24.4769 H   0  0  0  0  0  0  0  0  0  0  0  0
   -7.1779   -4.3794  -23.5914 H   0  0  0  0  0  0  0  0  0  0  0  0
   -8.9167   -3.4224  -22.0813 H   0  0  0  0  0  0  0  0  0  0  0  0
   -6.7943   -3.2414  -21.0819 H   0  0  0  0  0  0  0  0  0  0  0  0
   -6.1343   -2.2582  -22.3944 H   0  0  0  0  0  0  0  0  0  0  0  0
  -10.5454   -1.4749  -22.8544 C   0  0  0  0  0  0  0  0  0  0  0  0
  -11.2203   -2.3189  -21.9589 C   0  0  0  0  0  0  0  0  0  0  0  0
  -12.6016   -2.2614  -21.8595 C   0  0  0  0  0  0  0  0  0  0  0  0
  -13.4295   -3.1669  -20.6278 Cl  0  0  0  0  0  0  0  0  0  0  0  0
  -13.3596   -1.4270  -22.6789 C   0  0  0  0  0  0  0  0  0  0  0  0
  -12.7022   -0.5909  -23.5559 C   0  0  0  0  0  0  0  0  0  0  0  0
  -11.3096   -0.5545  -23.5911 C   0  0  0  0  0  0  0  0  0  0  0  0
  -10.6763    0.5817  -24.3394 C   0  0  0  0  0  0  0  0  0  0  0  0
  -11.3456    1.5137  -24.7782 O   0  0  0  0  0  0  0  0  0  0  0  0
  -13.2474    0.0805  -24.2089 H   0  0  0  0  0  0  0  0  0  0  0  0
  -14.4392   -1.4004  -22.5817 H   0  0  0  0  0  0  0  0  0  0  0  0
  -10.6780   -2.9867  -21.2982 H   0  0  0  0  0  0  0  0  0  0  0  0
   -8.6572   -1.3684  -25.0250 H   0  0  0  0  0  0  0  0  0  0  0  0
   -7.5123   -0.4072  -24.0741 H   0  0  0  0  0  0  0  0  0  0  0  0
   -8.0858    1.3583  -25.9688 H   0  0  0  0  0  0  0  0  0  0  0  0
   -9.3836    2.3820  -25.3255 H   0  0  0  0  0  0  0  0  0  0  0  0
   -9.0805    2.6510  -22.7311 H   0  0  0  0  0  0  0  0  0  0  0  0
   -6.5261    4.0913  -22.4282 H   0  0  0  0  0  0  0  0  0  0  0  0
   -6.7111    2.6009  -21.4891 H   0  0  0  0  0  0  0  0  0  0  0  0
   -7.8453    3.9605  -21.2440 H   0  0  0  0  0  0  0  0  0  0  0  0
  1  2  1  0
  2  3  1  0
  3  4  2  0
  3  5  1  0
  5  6  1  0
  6  7  1  0
  8  7  1  6
  8  9  1  0
  9 10  2  0
  9 11  1  0
 11 12  1  0
 12 13  2  0
 13 14  1  0
 14 15  2  0
 15 16  1  0
 16 17  2  0
 17 18  1  0
 18 19  2  0
 19 20  1  0
 20 21  2  0
 20 22  1  0
 19 23  1  0
 18 24  1  0
 17 25  1  0
 15 26  1  0
 13 27  1  0
 11 28  1  0
 28 29  1  0
 29 30  1  0
 30 31  1  0
 31 32  1  0
 32 33  2  0
 33 34  1  0
 34 35  2  0
 35 36  1  0
 36 37  1  0
 36 38  1  0
 36 39  1  0
 35 40  1  0
 33 41  1  0
 31 42  1  0
 30 43  1  0
 30 44  1  0
 29 45  1  1
 28 46  1  0
 28 47  1  0
  8 48  1  0
 48 49  2  0
 49 50  1  0
 50 51  1  0
 50 52  2  0
 52 53  1  0
 53 54  2  0
 54 55  1  0
 55 56  2  0
 53 57  1  0
 52 58  1  0
 49 59  1  0
  7 60  1  0
  7 61  1  0
  5 62  1  0
  5 63  1  0
  2 64  1  0
  1 65  1  0
  1 66  1  0
  1 67  1  0
 55  6  1  0
 29  8  1  0
 40 32  1  0
 54 48  1  0
 21 12  1  0
 21 16  1  0
M  END
>  <cnnaffinities>  (47) 
[6.45419, 7.00815, 7.03458]

>  <score>  (47) 
6.45419

>  <index>  (47) 
49

>  <Smiles>  (47) 
C(N(C(=O)C(N1C([C@@]2(C(=O)N(c3c(nc(c4c(c(c(c(c34)[H])[H])[H])[H])[H])[H])C([C@@]2(C(N(c2c(nc(C([H])([H])[H])s2)[H])[H])([H])[H])[H])([H])[H])c2c(c(Cl)c(c(c2C1=O)[H])[H])[H])([H])[H])([H])[H])[H])([H])([H])[H]

>  <h>  (47) 
<NA>

>  <Training>  (47) 
True

>  <Success>  (47) 
True

>  <enamine_searched>  (47) 
False

>  <enamine_id>  (47) 
nan

$$$$

     RDKit          3D

 66 70  0  0  0  0  0  0  0  0999 V2000
   -7.3901    3.3933  -21.8182 C   0  0  0  0  0  0  0  0  0  0  0  0
   -8.2426    2.9223  -22.8913 N   0  0  0  0  0  0  0  0  0  0  0  0
   -7.6644    2.2314  -23.8999 C   0  0  0  0  0  0  0  0  0  0  0  0
   -6.4476    2.1350  -24.0077 O   0  0  0  0  0  0  0  0  0  0  0  0
   -8.6144    1.6001  -24.9255 C   0  0  0  0  0  0  0  0  0  0  0  0
   -9.3604    0.4624  -24.4204 N   0  0  0  0  0  0  0  0  0  0  0  0
   -8.6609   -0.7963  -24.2413 C   0  0  0  0  0  0  0  0  0  0  0  0
   -9.0588   -1.4954  -22.9168 C   0  0  2  0  0  0  0  0  0  0  0  0
   -8.5011   -0.7013  -21.7009 C   0  0  0  0  0  0  0  0  0  0  0  0
   -8.9274    0.3342  -21.2387 O   0  0  0  0  0  0  0  0  0  0  0  0
   -7.4077   -1.3758  -21.2016 N   0  0  0  0  0  0  0  0  0  0  0  0
   -6.6087   -0.8041  -20.1737 C   0  0  0  0  0  0  0  0  0  0  0  0
   -6.9087   -1.0451  -18.8594 C   0  0  0  0  0  0  0  0  0  0  0  0
   -6.2014   -0.5582  -17.8094 N   0  0  0  0  0  0  0  0  0  0  0  0
   -5.1680    0.2039  -18.0744 C   0  0  0  0  0  0  0  0  0  0  0  0
   -4.7352    0.5383  -19.3877 C   0  0  0  0  0  0  0  0  0  0  0  0
   -3.6085    1.3733  -19.6317 C   0  0  0  0  0  0  0  0  0  0  0  0
   -3.2329    1.6834  -20.9096 C   0  0  0  0  0  0  0  0  0  0  0  0
   -3.9748    1.1805  -22.0018 C   0  0  0  0  0  0  0  0  0  0  0  0
   -5.0624    0.3646  -21.7916 C   0  0  0  0  0  0  0  0  0  0  0  0
   -5.4797    0.0233  -20.4794 C   0  0  0  0  0  0  0  0  0  0  0  0
   -5.5912   -0.0538  -22.6437 H   0  0  0  0  0  0  0  0  0  0  0  0
   -3.6686    1.3957  -23.0191 H   0  0  0  0  0  0  0  0  0  0  0  0
   -2.3631    2.3074  -21.0943 H   0  0  0  0  0  0  0  0  0  0  0  0
   -3.0675    1.7676  -18.7749 H   0  0  0  0  0  0  0  0  0  0  0  0
   -4.6219    0.6096  -17.2219 H   0  0  0  0  0  0  0  0  0  0  0  0
   -7.7609   -1.6688  -18.6013 H   0  0  0  0  0  0  0  0  0  0  0  0
   -7.0808   -2.5982  -21.9111 C   0  0  0  0  0  0  0  0  0  0  0  0
   -8.3424   -2.8703  -22.7580 C   0  0  2  0  0  0  0  0  0  0  0  0
   -8.0172   -3.6521  -24.0376 C   0  0  0  0  0  0  0  0  0  0  0  0
   -7.4913   -4.9271  -23.7264 O   0  0  0  0  0  0  0  0  0  0  0  0
   -8.4668   -5.9664  -23.6396 C   0  0  0  0  0  0  0  0  0  0  0  0
   -8.5693   -6.6990  -24.9773 C   0  0  0  0  0  0  0  0  0  0  0  0
   -8.8676   -6.0173  -25.7825 H   0  0  0  0  0  0  0  0  0  0  0  0
   -7.5963   -7.1305  -25.2353 H   0  0  0  0  0  0  0  0  0  0  0  0
   -9.3100   -7.5059  -24.9190 H   0  0  0  0  0  0  0  0  0  0  0  0
   -8.0522   -6.9017  -22.5136 C   0  0  0  0  0  0  0  0  0  0  0  0
   -7.0790   -7.3519  -22.7325 H   0  0  0  0  0  0  0  0  0  0  0  0
   -8.7929   -7.7000  -22.3958 H   0  0  0  0  0  0  0  0  0  0  0  0
   -7.9734   -6.3526  -21.5710 H   0  0  0  0  0  0  0  0  0  0  0  0
   -9.4492   -5.5185  -23.4022 H   0  0  0  0  0  0  0  0  0  0  0  0
   -8.9109   -3.7376  -24.6798 H   0  0  0  0  0  0  0  0  0  0  0  0
   -7.2385   -3.1330  -24.6128 H   0  0  0  0  0  0  0  0  0  0  0  0
   -9.0093   -3.5048  -22.1677 H   0  0  0  0  0  0  0  0  0  0  0  0
   -6.8599   -3.4117  -21.2104 H   0  0  0  0  0  0  0  0  0  0  0  0
   -6.1879   -2.4696  -22.5439 H   0  0  0  0  0  0  0  0  0  0  0  0
  -10.5764   -1.5246  -22.8477 C   0  0  0  0  0  0  0  0  0  0  0  0
  -11.2288   -2.3910  -21.9633 C   0  0  0  0  0  0  0  0  0  0  0  0
  -12.6047   -2.3678  -21.8814 C   0  0  0  0  0  0  0  0  0  0  0  0
  -13.2204   -3.1795  -21.0087 F   0  0  0  0  0  0  0  0  0  0  0  0
  -13.3891   -1.5133  -22.6452 C   0  0  0  0  0  0  0  0  0  0  0  0
  -12.7492   -0.6111  -23.4690 C   0  0  0  0  0  0  0  0  0  0  0  0
  -11.3560   -0.5903  -23.5480 C   0  0  0  0  0  0  0  0  0  0  0  0
  -10.7233    0.5320  -24.3164 C   0  0  0  0  0  0  0  0  0  0  0  0
  -11.3876    1.4523  -24.7710 O   0  0  0  0  0  0  0  0  0  0  0  0
  -13.2963    0.1272  -24.0455 H   0  0  0  0  0  0  0  0  0  0  0  0
  -14.4666   -1.5497  -22.5452 H   0  0  0  0  0  0  0  0  0  0  0  0
  -10.6892   -3.0596  -21.3034 H   0  0  0  0  0  0  0  0  0  0  0  0
   -8.8678   -1.4759  -25.0838 H   0  0  0  0  0  0  0  0  0  0  0  0
   -7.5918   -0.5649  -24.2250 H   0  0  0  0  0  0  0  0  0  0  0  0
   -9.3715    2.3067  -25.2789 H   0  0  0  0  0  0  0  0  0  0  0  0
   -7.9717    1.3061  -25.7619 H   0  0  0  0  0  0  0  0  0  0  0  0
   -9.2416    2.8440  -22.7494 H   0  0  0  0  0  0  0  0  0  0  0  0
   -6.6913    4.1583  -22.1777 H   0  0  0  0  0  0  0  0  0  0  0  0
   -6.7985    2.5553  -21.4113 H   0  0  0  0  0  0  0  0  0  0  0  0
   -8.0228    3.8432  -21.0542 H   0  0  0  0  0  0  0  0  0  0  0  0
  1  2  1  0
  2  3  1  0
  3  4  2  0
  3  5  1  0
  5  6  1  0
  6  7  1  0
  8  7  1  6
  8  9  1  0
  9 10  2  0
  9 11  1  0
 11 12  1  0
 12 13  2  0
 13 14  1  0
 14 15  2  0
 15 16  1  0
 16 17  2  0
 17 18  1  0
 18 19  2  0
 19 20  1  0
 20 21  2  0
 20 22  1  0
 19 23  1  0
 18 24  1  0
 17 25  1  0
 15 26  1  0
 13 27  1  0
 11 28  1  0
 28 29  1  0
 29 30  1  0
 30 31  1  0
 31 32  1  0
 32 33  1  0
 33 34  1  0
 33 35  1  0
 33 36  1  0
 32 37  1  0
 37 38  1  0
 37 39  1  0
 37 40  1  0
 32 41  1  0
 30 42  1  0
 30 43  1  0
 29 44  1  1
 28 45  1  0
 28 46  1  0
  8 47  1  0
 47 48  2  0
 48 49  1  0
 49 50  1  0
 49 51  2  0
 51 52  1  0
 52 53  2  0
 53 54  1  0
 54 55  2  0
 52 56  1  0
 51 57  1  0
 48 58  1  0
  7 59  1  0
  7 60  1  0
  5 61  1  0
  5 62  1  0
  2 63  1  0
  1 64  1  0
  1 65  1  0
  1 66  1  0
 54  6  1  0
 29  8  1  0
 53 47  1  0
 21 12  1  0
 21 16  1  0
M  END
>  <cnnaffinities>  (48) 
[6.58142, 6.58769, 6.19312, 6.43497, 6.40961, 6.38673]

>  <score>  (48) 
6.58142

>  <index>  (48) 
50

>  <Smiles>  (48) 
C(N(C(=O)C(N1C([C@@]2(C(=O)N(c3c(nc(c4c(c(c(c(c34)[H])[H])[H])[H])[H])[H])C([C@@]2(C(OC(C([H])([H])[H])(C([H])([H])[H])[H])([H])[H])[H])([H])[H])c2c(c(F)c(c(c2C1=O)[H])[H])[H])([H])[H])([H])[H])[H])([H])([H])[H]

>  <h>  (48) 
<NA>

>  <Training>  (48) 
True

>  <Success>  (48) 
True

>  <enamine_searched>  (48) 
False

>  <enamine_id>  (48) 
nan

$$$$

     RDKit          3D

 50 52  0  0  0  0  0  0  0  0999 V2000
  -11.5641   -1.0092  -24.4978 C   0  0  0  0  0  0  0  0  0  0  0  0
  -10.8510   -0.0492  -23.9149 C   0  0  0  0  0  0  0  0  0  0  0  0
   -9.3426   -0.0594  -24.0868 C   0  0  0  0  0  0  0  0  0  0  0  0
   -8.6370   -0.9711  -23.1651 N   0  0  0  0  0  0  0  0  0  0  0  0
   -7.9525   -0.3637  -22.1226 C   0  0  0  0  0  0  0  0  0  0  0  0
   -7.7661    0.8370  -22.0633 O   0  0  0  0  0  0  0  0  0  0  0  0
   -7.4164   -1.2389  -21.2045 N   0  0  0  0  0  0  0  0  0  0  0  0
   -6.6027   -0.7731  -20.1544 C   0  0  0  0  0  0  0  0  0  0  0  0
   -6.8850   -1.1025  -18.8512 C   0  0  0  0  0  0  0  0  0  0  0  0
   -6.2041   -0.6256  -17.7793 N   0  0  0  0  0  0  0  0  0  0  0  0
   -5.1983    0.1835  -18.0152 C   0  0  0  0  0  0  0  0  0  0  0  0
   -4.7642    0.5603  -19.3144 C   0  0  0  0  0  0  0  0  0  0  0  0
   -3.6533    1.4192  -19.5250 C   0  0  0  0  0  0  0  0  0  0  0  0
   -3.2727    1.7678  -20.7933 C   0  0  0  0  0  0  0  0  0  0  0  0
   -3.9774    1.2588  -21.9048 C   0  0  0  0  0  0  0  0  0  0  0  0
   -5.0303    0.3993  -21.7297 C   0  0  0  0  0  0  0  0  0  0  0  0
   -5.4745    0.0605  -20.4238 C   0  0  0  0  0  0  0  0  0  0  0  0
   -5.5200   -0.0268  -22.5950 H   0  0  0  0  0  0  0  0  0  0  0  0
   -3.6799    1.5317  -22.9120 H   0  0  0  0  0  0  0  0  0  0  0  0
   -2.4265    2.4274  -20.9580 H   0  0  0  0  0  0  0  0  0  0  0  0
   -3.1207    1.7951  -18.6568 H   0  0  0  0  0  0  0  0  0  0  0  0
   -4.6683    0.5781  -17.1505 H   0  0  0  0  0  0  0  0  0  0  0  0
   -7.7244   -1.7601  -18.6191 H   0  0  0  0  0  0  0  0  0  0  0  0
   -7.8088   -2.1680  -21.1261 H   0  0  0  0  0  0  0  0  0  0  0  0
   -9.1993   -2.2730  -22.9591 C   0  0  0  0  0  0  0  0  0  0  0  0
   -8.9090   -3.3555  -23.7865 C   0  0  0  0  0  0  0  0  0  0  0  0
   -9.7047   -4.4975  -23.7014 C   0  0  0  0  0  0  0  0  0  0  0  0
  -10.8167   -4.5351  -22.8644 C   0  0  0  0  0  0  0  0  0  0  0  0
  -11.0769   -3.4392  -22.0472 C   0  0  0  0  0  0  0  0  0  0  0  0
  -12.5846   -3.2848  -21.1851 Cl  0  0  0  0  0  0  0  0  0  0  0  0
  -10.1929   -2.3752  -21.9874 C   0  0  0  0  0  0  0  0  0  0  0  0
  -10.3736   -1.5517  -21.2989 H   0  0  0  0  0  0  0  0  0  0  0  0
  -11.4838   -5.3875  -22.8888 H   0  0  0  0  0  0  0  0  0  0  0  0
   -9.4827   -5.3628  -24.3241 H   0  0  0  0  0  0  0  0  0  0  0  0
   -8.0915   -3.2976  -24.5023 H   0  0  0  0  0  0  0  0  0  0  0  0
   -8.9213    0.9336  -23.9159 H   0  0  0  0  0  0  0  0  0  0  0  0
   -9.1266   -0.3664  -25.1258 H   0  0  0  0  0  0  0  0  0  0  0  0
  -11.5423    0.9663  -23.0417 C   0  0  0  0  0  0  0  0  0  0  0  0
  -10.9797    1.5177  -22.0950 O   0  0  0  0  0  0  0  0  0  0  0  0
  -12.7859    1.1899  -23.4007 N   0  0  0  0  0  0  0  0  0  0  0  0
  -13.8053    1.7464  -22.5328 C   0  0  0  0  0  0  0  0  0  0  0  0
  -13.6163    1.9989  -22.5471 C   0  0  0  0  0  0  0  0  0  0  0  0
  -14.5466    2.4946  -21.8310 H   0  0  0  0  0  0  0  0  0  0  0  0
  -13.1892    1.5644  -21.5074 H   0  0  0  0  0  0  0  0  0  0  0  0
  -14.8252    0.5504  -22.3633 H   0  0  0  0  0  0  0  0  0  0  0  0
  -14.3727    2.3114  -23.4423 H   0  0  0  0  0  0  0  0  0  0  0  0
  -12.8819    3.3804  -22.4364 H   0  0  0  0  0  0  0  0  0  0  0  0
  -13.1024    0.6924  -24.2097 H   0  0  0  0  0  0  0  0  0  0  0  0
  -12.6463   -1.1149  -24.4156 H   0  0  0  0  0  0  0  0  0  0  0  0
  -11.0270   -1.7908  -25.0342 H   0  0  0  0  0  0  0  0  0  0  0  0
  1  2  2  0
  2  3  1  0
  3  4  1  0
  4  5  1  0
  5  6  2  0
  5  7  1  0
  7  8  1  0
  8  9  2  0
  9 10  1  0
 10 11  2  0
 11 12  1  0
 12 13  2  0
 13 14  1  0
 14 15  2  0
 15 16  1  0
 16 17  2  0
 16 18  1  0
 15 19  1  0
 14 20  1  0
 13 21  1  0
 11 22  1  0
  9 23  1  0
  7 24  1  0
  4 25  1  0
 25 26  2  0
 26 27  1  0
 27 28  2  0
 28 29  1  0
 29 30  1  0
 29 31  2  0
 31 32  1  0
 28 33  1  0
 27 34  1  0
 26 35  1  0
  3 36  1  0
  3 37  1  0
  2 38  1  0
 38 39  2  0
 38 40  1  0
 40 41  1  0
 41 42  1  0
 42 43  1  0
 42 44  1  0
 42 45  1  0
 41 46  1  0
 41 47  1  0
 40 48  1  0
  1 49  1  0
  1 50  1  0
 17  8  1  0
 31 25  1  0
 17 12  1  0
M  END
>  <cnnaffinities>  (49) 
[5.30627]

>  <score>  (49) 
5.30627

>  <index>  (49) 
51

>  <Smiles>  (49) 
C(=C(C(N(C(=O)N(c1c(nc(c2c(c(c(c(c12)[H])[H])[H])[H])[H])[H])[H])c1c(c(c(c(Cl)c1[H])[H])[H])[H])([H])[H])C(=O)N(C(C([H])([H])[H])([H])[H])[H])([H])[H]

>  <h>  (49) 
<NA>

>  <Training>  (49) 
True

>  <Success>  (49) 
True

>  <enamine_searched>  (49) 
False

>  <enamine_id>  (49) 
nan

$$$$

     RDKit          3D

 57 60  0  0  0  0  0  0  0  0999 V2000
  -15.1365    3.5645  -21.1234 C   0  0  0  0  0  0  0  0  0  0  0  0
  -15.1299    3.1410  -22.5905 C   0  0  0  0  0  0  0  0  0  0  0  0
  -13.7078    3.1611  -23.0797 C   0  0  0  0  0  0  0  0  0  0  0  0
  -13.1815    4.2105  -23.3974 O   0  0  0  0  0  0  0  0  0  0  0  0
  -13.0487    1.9568  -23.0657 N   0  0  0  0  0  0  0  0  0  0  0  0
  -11.7518    1.7613  -23.5862 C   0  0  0  0  0  0  0  0  0  0  0  0
  -11.2534    2.6322  -24.5534 C   0  0  0  0  0  0  0  0  0  0  0  0
   -9.9911    2.4262  -25.0784 C   0  0  0  0  0  0  0  0  0  0  0  0
   -9.2060    1.3739  -24.6399 C   0  0  0  0  0  0  0  0  0  0  0  0
   -9.6835    0.5465  -23.6296 C   0  0  0  0  0  0  0  0  0  0  0  0
   -8.8175   -0.4621  -23.1205 N   0  0  0  0  0  0  0  0  0  0  0  0
   -8.4218   -1.5512  -24.0030 C   0  0  0  0  0  0  0  0  0  0  0  0
   -9.0186   -2.8695  -23.5620 C   0  0  0  0  0  0  0  0  0  0  0  0
  -10.4074   -2.9432  -23.4324 C   0  0  0  0  0  0  0  0  0  0  0  0
  -11.0206   -4.1428  -23.0932 C   0  0  0  0  0  0  0  0  0  0  0  0
  -10.2449   -5.2733  -22.8529 C   0  0  0  0  0  0  0  0  0  0  0  0
   -8.8580   -5.1883  -22.9015 C   0  0  0  0  0  0  0  0  0  0  0  0
   -8.2460   -3.9921  -23.2673 C   0  0  0  0  0  0  0  0  0  0  0  0
   -7.1572   -3.9469  -23.3259 H   0  0  0  0  0  0  0  0  0  0  0  0
   -8.2506   -6.0528  -22.6447 H   0  0  0  0  0  0  0  0  0  0  0  0
  -10.7139   -6.2270  -22.6510 H   0  0  0  0  0  0  0  0  0  0  0  0
  -12.1044   -4.2000  -23.0268 H   0  0  0  0  0  0  0  0  0  0  0  0
  -11.0119   -2.0551  -23.6247 H   0  0  0  0  0  0  0  0  0  0  0  0
   -8.8194   -1.2959  -24.9897 H   0  0  0  0  0  0  0  0  0  0  0  0
   -7.3272   -1.5994  -24.0969 H   0  0  0  0  0  0  0  0  0  0  0  0
   -8.4597   -0.3527  -21.7949 C   0  0  0  0  0  0  0  0  0  0  0  0
   -8.9211    0.5118  -21.0705 O   0  0  0  0  0  0  0  0  0  0  0  0
   -7.4448   -1.3636  -21.2760 C   0  0  0  0  0  0  0  0  0  0  0  0
   -6.5977   -0.8017  -20.1873 C   0  0  0  0  0  0  0  0  0  0  0  0
   -6.9103   -1.0593  -18.8817 C   0  0  0  0  0  0  0  0  0  0  0  0
   -6.2359   -0.5805  -17.8085 N   0  0  0  0  0  0  0  0  0  0  0  0
   -5.2073    0.1934  -18.0573 C   0  0  0  0  0  0  0  0  0  0  0  0
   -4.7729    0.5549  -19.3620 C   0  0  0  0  0  0  0  0  0  0  0  0
   -3.6453    1.3879  -19.5759 C   0  0  0  0  0  0  0  0  0  0  0  0
   -3.2687    1.7373  -20.8427 C   0  0  0  0  0  0  0  0  0  0  0  0
   -4.0116    1.2786  -21.9537 C   0  0  0  0  0  0  0  0  0  0  0  0
   -5.0985    0.4589  -21.7748 C   0  0  0  0  0  0  0  0  0  0  0  0
   -5.5021    0.0633  -20.4697 C   0  0  0  0  0  0  0  0  0  0  0  0
   -5.6354    0.0994  -22.6478 H   0  0  0  0  0  0  0  0  0  0  0  0
   -3.7006    1.5567  -22.9580 H   0  0  0  0  0  0  0  0  0  0  0  0
   -2.4006    2.3704  -21.0074 H   0  0  0  0  0  0  0  0  0  0  0  0
   -3.0920    1.7454  -18.7106 H   0  0  0  0  0  0  0  0  0  0  0  0
   -4.6618    0.5797  -17.1959 H   0  0  0  0  0  0  0  0  0  0  0  0
   -7.7636   -1.6992  -18.6528 H   0  0  0  0  0  0  0  0  0  0  0  0
   -8.0309   -2.2093  -20.8986 H   0  0  0  0  0  0  0  0  0  0  0  0
   -6.8313   -1.7362  -22.0986 H   0  0  0  0  0  0  0  0  0  0  0  0
  -10.9695    0.7012  -23.1222 C   0  0  0  0  0  0  0  0  0  0  0  0
  -11.3196    0.0401  -22.3298 H   0  0  0  0  0  0  0  0  0  0  0  0
   -8.2098    1.2091  -25.0393 H   0  0  0  0  0  0  0  0  0  0  0  0
   -9.6303    3.0948  -25.8512 H   0  0  0  0  0  0  0  0  0  0  0  0
  -11.8342    3.4958  -24.8384 H   0  0  0  0  0  0  0  0  0  0  0  0
  -13.5223    1.1558  -22.6780 H   0  0  0  0  0  0  0  0  0  0  0  0
  -15.6735    3.8723  -23.1958 H   0  0  0  0  0  0  0  0  0  0  0  0
  -15.5807    2.1581  -22.7462 H   0  0  0  0  0  0  0  0  0  0  0  0
  -14.4602    2.9491  -20.5206 H   0  0  0  0  0  0  0  0  0  0  0  0
  -14.7946    4.5992  -21.0482 H   0  0  0  0  0  0  0  0  0  0  0  0
  -16.1424    3.4943  -20.7085 H   0  0  0  0  0  0  0  0  0  0  0  0
  1  2  1  0
  2  3  1  0
  3  4  2  0
  3  5  1  0
  5  6  1  0
  6  7  2  0
  7  8  1  0
  8  9  2  0
  9 10  1  0
 10 11  1  0
 11 12  1  0
 12 13  1  0
 13 14  2  0
 14 15  1  0
 15 16  2  0
 16 17  1  0
 17 18  2  0
 18 19  1  0
 17 20  1  0
 16 21  1  0
 15 22  1  0
 14 23  1  0
 12 24  1  0
 12 25  1  0
 11 26  1  0
 26 27  2  0
 26 28  1  0
 28 29  1  0
 29 30  2  0
 30 31  1  0
 31 32  2  0
 32 33  1  0
 33 34  2  0
 34 35  1  0
 35 36  2  0
 36 37  1  0
 37 38  2  0
 37 39  1  0
 36 40  1  0
 35 41  1  0
 34 42  1  0
 32 43  1  0
 30 44  1  0
 28 45  1  0
 28 46  1  0
 10 47  2  0
 47 48  1  0
  9 49  1  0
  8 50  1  0
  7 51  1  0
  5 52  1  0
  2 53  1  0
  2 54  1  0
  1 55  1  0
  1 56  1  0
  1 57  1  0
 47  6  1  0
 18 13  1  0
 38 29  1  0
 38 33  1  0
M  END
>  <cnnaffinities>  (50) 
[6.00557]

>  <score>  (50) 
6.00557

>  <index>  (50) 
52

>  <Smiles>  (50) 
C(C(C(=O)N(c1c(c(c(c(N(C(c2c(c(c(c(c2[H])[H])[H])[H])[H])([H])[H])C(=O)C(c2c(nc(c3c(c(c(c(c23)[H])[H])[H])[H])[H])[H])([H])[H])c1[H])[H])[H])[H])[H])([H])[H])([H])([H])[H]

>  <h>  (50) 
<NA>

>  <Training>  (50) 
True

>  <Success>  (50) 
True

>  <enamine_searched>  (50) 
False

>  <enamine_id>  (50) 
nan

$$$$

     RDKit          3D

 59 63  0  0  0  0  0  0  0  0999 V2000
   -7.7154    4.3941  -22.3623 C   0  0  0  0  0  0  0  0  0  0  0  0
   -6.7950    3.4674  -23.1290 C   0  0  0  0  0  0  0  0  0  0  0  0
   -7.5706    2.7155  -24.0933 N   0  0  0  0  0  0  0  0  0  0  0  0
   -6.9916    1.7049  -24.7706 C   0  0  0  0  0  0  0  0  0  0  0  0
   -5.7946    1.4560  -24.6918 O   0  0  0  0  0  0  0  0  0  0  0  0
   -7.9482    0.8943  -25.6507 C   0  0  0  0  0  0  0  0  0  0  0  0
   -8.8983    0.1514  -24.8373 N   0  0  0  0  0  0  0  0  0  0  0  0
   -8.5344   -1.1771  -24.3607 C   0  0  0  0  0  0  0  0  0  0  0  0
   -9.0669   -1.4490  -22.9265 C   0  0  2  0  0  0  0  0  0  0  0  0
   -8.3280   -0.5226  -21.9295 C   0  0  0  0  0  0  0  0  0  0  0  0
   -8.4762    0.6751  -21.7756 O   0  0  0  0  0  0  0  0  0  0  0  0
   -7.4576   -1.2866  -21.1975 N   0  0  0  0  0  0  0  0  0  0  0  0
   -6.6440   -0.7479  -20.1792 C   0  0  0  0  0  0  0  0  0  0  0  0
   -6.9115   -1.0658  -18.8729 C   0  0  0  0  0  0  0  0  0  0  0  0
   -6.2161   -0.5976  -17.8127 N   0  0  0  0  0  0  0  0  0  0  0  0
   -5.1997    0.1917  -18.0678 C   0  0  0  0  0  0  0  0  0  0  0  0
   -4.7847    0.5613  -19.3779 C   0  0  0  0  0  0  0  0  0  0  0  0
   -3.6493    1.3861  -19.5936 C   0  0  0  0  0  0  0  0  0  0  0  0
   -3.2656    1.7240  -20.8619 C   0  0  0  0  0  0  0  0  0  0  0  0
   -4.0052    1.2593  -21.9724 C   0  0  0  0  0  0  0  0  0  0  0  0
   -5.0958    0.4433  -21.7919 C   0  0  0  0  0  0  0  0  0  0  0  0
   -5.5251    0.0838  -20.4830 C   0  0  0  0  0  0  0  0  0  0  0  0
   -5.6267    0.0832  -22.6684 H   0  0  0  0  0  0  0  0  0  0  0  0
   -3.7194    1.5414  -22.9822 H   0  0  0  0  0  0  0  0  0  0  0  0
   -2.3927    2.3486  -21.0249 H   0  0  0  0  0  0  0  0  0  0  0  0
   -3.1001    1.7389  -18.7263 H   0  0  0  0  0  0  0  0  0  0  0  0
   -4.6409    0.5743  -17.2145 H   0  0  0  0  0  0  0  0  0  0  0  0
   -7.7484   -1.7257  -18.6443 H   0  0  0  0  0  0  0  0  0  0  0  0
   -7.4199   -2.6795  -21.5644 C   0  0  0  0  0  0  0  0  0  0  0  0
   -8.6738   -2.8725  -22.4306 C   0  0  2  0  0  0  0  0  0  0  0  0
   -8.4607   -3.9411  -23.5012 C   0  0  0  0  0  0  0  0  0  0  0  0
   -8.2589   -4.9132  -23.0367 H   0  0  0  0  0  0  0  0  0  0  0  0
   -7.5971   -3.6952  -24.1309 H   0  0  0  0  0  0  0  0  0  0  0  0
   -9.3347   -4.0472  -24.1528 H   0  0  0  0  0  0  0  0  0  0  0  0
   -9.4644   -3.2258  -21.7670 H   0  0  0  0  0  0  0  0  0  0  0  0
   -6.5002   -2.9308  -22.1133 H   0  0  0  0  0  0  0  0  0  0  0  0
   -7.4320   -3.2990  -20.6679 H   0  0  0  0  0  0  0  0  0  0  0  0
  -10.5506   -1.1329  -22.9169 C   0  0  0  0  0  0  0  0  0  0  0  0
  -11.4613   -1.8045  -22.0982 C   0  0  0  0  0  0  0  0  0  0  0  0
  -12.8080   -1.5119  -22.1903 C   0  0  0  0  0  0  0  0  0  0  0  0
  -13.9206   -2.4120  -21.2028 Cl  0  0  0  0  0  0  0  0  0  0  0  0
  -13.2940   -0.5123  -23.0308 C   0  0  0  0  0  0  0  0  0  0  0  0
  -12.3877    0.2226  -23.7719 C   0  0  0  0  0  0  0  0  0  0  0  0
  -11.0246   -0.0675  -23.6948 C   0  0  0  0  0  0  0  0  0  0  0  0
  -10.0580    0.7636  -24.4719 C   0  0  0  0  0  0  0  0  0  0  0  0
  -10.3127    1.9348  -24.7670 O   0  0  0  0  0  0  0  0  0  0  0  0
  -12.7374    1.0053  -24.4380 H   0  0  0  0  0  0  0  0  0  0  0  0
  -14.3630   -0.3417  -23.0980 H   0  0  0  0  0  0  0  0  0  0  0  0
  -11.1388   -2.5527  -21.3822 H   0  0  0  0  0  0  0  0  0  0  0  0
   -7.4424   -1.2585  -24.3541 H   0  0  0  0  0  0  0  0  0  0  0  0
   -8.9375   -1.9263  -25.0539 H   0  0  0  0  0  0  0  0  0  0  0  0
   -7.3611    0.2220  -26.2806 H   0  0  0  0  0  0  0  0  0  0  0  0
   -8.5094    1.5595  -26.3135 H   0  0  0  0  0  0  0  0  0  0  0  0
   -8.5815    2.7812  -24.0706 H   0  0  0  0  0  0  0  0  0  0  0  0
   -6.2911    2.7644  -22.4520 H   0  0  0  0  0  0  0  0  0  0  0  0
   -6.0102    4.0094  -23.6645 H   0  0  0  0  0  0  0  0  0  0  0  0
   -8.4788    3.7887  -21.8695 H   0  0  0  0  0  0  0  0  0  0  0  0
   -8.2089    5.1070  -23.0325 H   0  0  0  0  0  0  0  0  0  0  0  0
   -7.1753    4.9565  -21.5955 H   0  0  0  0  0  0  0  0  0  0  0  0
  1  2  1  0
  2  3  1  0
  3  4  1  0
  4  5  2  0
  4  6  1  0
  6  7  1  0
  7  8  1  0
  9  8  1  6
  9 10  1  0
 10 11  2  0
 10 12  1  0
 12 13  1  0
 13 14  2  0
 14 15  1  0
 15 16  2  0
 16 17  1  0
 17 18  2  0
 18 19  1  0
 19 20  2  0
 20 21  1  0
 21 22  2  0
 21 23  1  0
 20 24  1  0
 19 25  1  0
 18 26  1  0
 16 27  1  0
 14 28  1  0
 12 29  1  0
 29 30  1  0
 30 31  1  0
 31 32  1  0
 31 33  1  0
 31 34  1  0
 30 35  1  1
 29 36  1  0
 29 37  1  0
  9 38  1  0
 38 39  2  0
 39 40  1  0
 40 41  1  0
 40 42  2  0
 42 43  1  0
 43 44  2  0
 44 45  1  0
 45 46  2  0
 43 47  1  0
 42 48  1  0
 39 49  1  0
  8 50  1  0
  8 51  1  0
  6 52  1  0
  6 53  1  0
  3 54  1  0
  2 55  1  0
  2 56  1  0
  1 57  1  0
  1 58  1  0
  1 59  1  0
 45  7  1  0
 30  9  1  0
 44 38  1  0
 22 13  1  0
 22 17  1  0
M  END
>  <cnnaffinities>  (51) 
[6.27398]

>  <score>  (51) 
6.27398

>  <index>  (51) 
53

>  <Smiles>  (51) 
C(C(N(C(=O)C(N1C([C@@]2(C(=O)N(c3c(nc(c4c(c(c(c(c34)[H])[H])[H])[H])[H])[H])C([C@@]2(C([H])([H])[H])[H])([H])[H])c2c(c(Cl)c(c(c2C1=O)[H])[H])[H])([H])[H])([H])[H])[H])([H])[H])([H])([H])[H]

>  <h>  (51) 
<NA>

>  <Training>  (51) 
True

>  <Success>  (51) 
True

>  <enamine_searched>  (51) 
False

>  <enamine_id>  (51) 
nan

$$$$

     RDKit          3D

 40 43  0  0  0  0  0  0  0  0999 V2000
  -10.3058   -2.6234  -22.7696 C   0  0  0  0  0  0  0  0  0  0  0  0
   -8.9565   -2.2295  -22.4232 N   0  0  0  0  0  0  0  0  0  0  0  0
   -7.7558   -2.6845  -22.8916 C   0  0  0  0  0  0  0  0  0  0  0  0
   -7.6558   -3.6063  -24.0485 C   0  0  0  0  0  0  0  0  0  0  0  0
   -7.9066   -5.0123  -23.5847 C   0  0  0  0  0  0  0  0  0  0  0  0
   -9.0995   -5.6635  -23.8616 C   0  0  0  0  0  0  0  0  0  0  0  0
   -9.2787   -6.9949  -23.5072 C   0  0  0  0  0  0  0  0  0  0  0  0
   -8.2302   -7.6717  -22.8870 C   0  0  0  0  0  0  0  0  0  0  0  0
   -7.0870   -6.9838  -22.4737 C   0  0  0  0  0  0  0  0  0  0  0  0
   -6.9341   -5.6506  -22.8266 C   0  0  0  0  0  0  0  0  0  0  0  0
   -6.0546   -5.0919  -22.5278 H   0  0  0  0  0  0  0  0  0  0  0  0
   -6.3228   -7.4815  -21.8772 H   0  0  0  0  0  0  0  0  0  0  0  0
   -8.2715   -8.7443  -22.7823 H   0  0  0  0  0  0  0  0  0  0  0  0
  -10.2272   -7.4941  -23.7127 H   0  0  0  0  0  0  0  0  0  0  0  0
   -9.8925   -5.1243  -24.3692 H   0  0  0  0  0  0  0  0  0  0  0  0
   -8.3526   -3.3316  -24.8440 H   0  0  0  0  0  0  0  0  0  0  0  0
   -6.6669   -3.5068  -24.4954 H   0  0  0  0  0  0  0  0  0  0  0  0
   -6.7563   -2.2658  -22.1742 N   0  0  0  0  0  0  0  0  0  0  0  0
   -7.3253   -1.4101  -21.2647 N   0  0  0  0  0  0  0  0  0  0  0  0
   -6.5972   -0.8239  -20.2056 C   0  0  0  0  0  0  0  0  0  0  0  0
   -6.9255   -1.0688  -18.8899 C   0  0  0  0  0  0  0  0  0  0  0  0
   -6.2250   -0.5864  -17.8332 N   0  0  0  0  0  0  0  0  0  0  0  0
   -5.1968    0.1828  -18.1008 C   0  0  0  0  0  0  0  0  0  0  0  0
   -4.7582    0.5157  -19.4115 C   0  0  0  0  0  0  0  0  0  0  0  0
   -3.6377    1.3595  -19.6271 C   0  0  0  0  0  0  0  0  0  0  0  0
   -3.2604    1.6949  -20.8965 C   0  0  0  0  0  0  0  0  0  0  0  0
   -3.9948    1.2149  -22.0037 C   0  0  0  0  0  0  0  0  0  0  0  0
   -5.0696    0.3801  -21.8273 C   0  0  0  0  0  0  0  0  0  0  0  0
   -5.4767    0.0034  -20.5146 C   0  0  0  0  0  0  0  0  0  0  0  0
   -5.6048   -0.0191  -22.6837 H   0  0  0  0  0  0  0  0  0  0  0  0
   -3.6809    1.4759  -23.0104 H   0  0  0  0  0  0  0  0  0  0  0  0
   -2.3888    2.3214  -21.0664 H   0  0  0  0  0  0  0  0  0  0  0  0
   -3.1000    1.7260  -18.7576 H   0  0  0  0  0  0  0  0  0  0  0  0
   -4.6466    0.5985  -17.2567 H   0  0  0  0  0  0  0  0  0  0  0  0
   -7.7773   -1.7020  -18.6421 H   0  0  0  0  0  0  0  0  0  0  0  0
   -8.6832   -1.2519  -21.4718 C   0  0  0  0  0  0  0  0  0  0  0  0
   -9.4261   -0.4259  -20.9914 O   0  0  0  0  0  0  0  0  0  0  0  0
  -10.5720   -3.6098  -22.3641 H   0  0  0  0  0  0  0  0  0  0  0  0
  -10.9571   -1.8583  -22.3408 H   0  0  0  0  0  0  0  0  0  0  0  0
  -10.4267   -2.6477  -23.8568 H   0  0  0  0  0  0  0  0  0  0  0  0
  1  2  1  0
  2  3  1  0
  3  4  1  0
  4  5  1  0
  5  6  2  0
  6  7  1  0
  7  8  2  0
  8  9  1  0
  9 10  2  0
 10 11  1  0
  9 12  1  0
  8 13  1  0
  7 14  1  0
  6 15  1  0
  4 16  1  0
  4 17  1  0
  3 18  2  0
 18 19  1  0
 19 20  1  0
 20 21  2  0
 21 22  1  0
 22 23  2  0
 23 24  1  0
 24 25  2  0
 25 26  1  0
 26 27  2  0
 27 28  1  0
 28 29  2  0
 28 30  1  0
 27 31  1  0
 26 32  1  0
 25 33  1  0
 23 34  1  0
 21 35  1  0
 19 36  1  0
 36 37  2  0
  1 38  1  0
  1 39  1  0
  1 40  1  0
 36  2  1  0
 10  5  1  0
 29 20  1  0
 29 24  1  0
M  END
>  <cnnaffinities>  (52) 
[4.60405, 4.60424, 5.006, 4.74414, 4.74404]

>  <score>  (52) 
4.60405

>  <index>  (52) 
54

>  <Smiles>  (52) 
C(n1c(C(c2c(c(c(c(c2[H])[H])[H])[H])[H])([H])[H])nn(c2c(nc(c3c(c(c(c(c23)[H])[H])[H])[H])[H])[H])c1=O)([H])([H])[H]

>  <h>  (52) 
<NA>

>  <Training>  (52) 
True

>  <Success>  (52) 
True

>  <enamine_searched>  (52) 
False

>  <enamine_id>  (52) 
nan

$$$$

     RDKit          3D

 61 66  0  0  0  0  0  0  0  0999 V2000
   -9.1699   -4.6127  -25.7880 C   0  0  0  0  0  0  0  0  0  0  0  0
   -9.3494   -3.9721  -24.5489 O   0  0  0  0  0  0  0  0  0  0  0  0
   -8.1294   -3.6228  -23.9474 C   0  0  0  0  0  0  0  0  0  0  0  0
   -8.4089   -2.8720  -22.6553 C   0  0  1  0  0  0  0  0  0  0  0  0
   -7.0985   -2.4622  -21.9628 C   0  0  0  0  0  0  0  0  0  0  0  0
   -7.4689   -1.2803  -21.2152 N   0  0  0  0  0  0  0  0  0  0  0  0
   -6.6711   -0.7462  -20.1735 C   0  0  0  0  0  0  0  0  0  0  0  0
   -6.9700   -1.0278  -18.8650 C   0  0  0  0  0  0  0  0  0  0  0  0
   -6.2510   -0.5790  -17.8078 N   0  0  0  0  0  0  0  0  0  0  0  0
   -5.2154    0.1865  -18.0555 C   0  0  0  0  0  0  0  0  0  0  0  0
   -4.7834    0.5468  -19.3639 C   0  0  0  0  0  0  0  0  0  0  0  0
   -3.6686    1.3970  -19.5922 C   0  0  0  0  0  0  0  0  0  0  0  0
   -3.3001    1.7337  -20.8668 C   0  0  0  0  0  0  0  0  0  0  0  0
   -4.0097    1.2142  -21.9699 C   0  0  0  0  0  0  0  0  0  0  0  0
   -5.0702    0.3595  -21.7694 C   0  0  0  0  0  0  0  0  0  0  0  0
   -5.5122    0.0387  -20.4619 C   0  0  0  0  0  0  0  0  0  0  0  0
   -5.6145   -0.0309  -22.6219 H   0  0  0  0  0  0  0  0  0  0  0  0
   -3.7371    1.5158  -22.9785 H   0  0  0  0  0  0  0  0  0  0  0  0
   -2.4685    2.4109  -21.0364 H   0  0  0  0  0  0  0  0  0  0  0  0
   -3.1369    1.7911  -18.7323 H   0  0  0  0  0  0  0  0  0  0  0  0
   -4.6509    0.5622  -17.2004 H   0  0  0  0  0  0  0  0  0  0  0  0
   -7.8236   -1.6603  -18.6289 H   0  0  0  0  0  0  0  0  0  0  0  0
   -8.6915   -0.7471  -21.5678 C   0  0  0  0  0  0  0  0  0  0  0  0
   -9.2187    0.1966  -21.0191 O   0  0  0  0  0  0  0  0  0  0  0  0
   -9.2447   -1.5574  -22.7717 C   0  0  1  0  0  0  0  0  0  0  0  0
   -8.9315   -0.8031  -24.0925 C   0  0  0  0  0  0  0  0  0  0  0  0
   -9.7128    0.4134  -24.2455 N   0  0  0  0  0  0  0  0  0  0  0  0
   -9.0713    1.6293  -24.7276 C   0  0  0  0  0  0  0  0  0  0  0  0
   -8.1659    2.2363  -23.7108 C   0  0  0  0  0  0  0  0  0  0  0  0
   -6.8161    2.2632  -23.5839 C   0  0  0  0  0  0  0  0  0  0  0  0
   -6.5307    3.0475  -22.4818 N   0  0  0  0  0  4  0  0  0  0  0  0
   -7.6742    3.4602  -21.9327 C   0  0  0  0  0  0  0  0  0  0  0  0
   -8.6819    2.9663  -22.6566 N   0  0  0  0  0  0  0  0  0  0  0  0
   -9.6467    2.9445  -22.3421 H   0  0  0  0  0  0  0  0  0  0  0  0
   -7.7699    4.1388  -21.1006 H   0  0  0  0  0  0  0  0  0  0  0  0
   -5.6100    3.1481  -22.0746 H   0  0  0  0  0  0  0  0  0  0  0  0
   -6.0439    1.7300  -24.1263 H   0  0  0  0  0  0  0  0  0  0  0  0
   -8.5231    1.4372  -25.6574 H   0  0  0  0  0  0  0  0  0  0  0  0
   -9.8919    2.3166  -24.9630 H   0  0  0  0  0  0  0  0  0  0  0  0
  -11.0698    0.3961  -24.0955 C   0  0  0  0  0  0  0  0  0  0  0  0
  -11.7955    1.2970  -24.5006 O   0  0  0  0  0  0  0  0  0  0  0  0
  -11.6076   -0.7829  -23.3451 C   0  0  0  0  0  0  0  0  0  0  0  0
  -12.9967   -0.8488  -23.2235 C   0  0  0  0  0  0  0  0  0  0  0  0
  -13.5592   -1.7253  -22.3243 C   0  0  0  0  0  0  0  0  0  0  0  0
  -12.7124   -2.5425  -21.5850 C   0  0  0  0  0  0  0  0  0  0  0  0
  -13.4362   -3.3744  -20.2526 Cl  0  0  0  0  0  0  0  0  0  0  0  0
  -11.3487   -2.6154  -21.8148 C   0  0  0  0  0  0  0  0  0  0  0  0
  -10.7581   -1.6975  -22.6930 C   0  0  0  0  0  0  0  0  0  0  0  0
  -10.7584   -3.3748  -21.3079 H   0  0  0  0  0  0  0  0  0  0  0  0
  -14.6246   -1.7632  -22.1314 H   0  0  0  0  0  0  0  0  0  0  0  0
  -13.6125   -0.1615  -23.7871 H   0  0  0  0  0  0  0  0  0  0  0  0
   -9.1638   -1.4683  -24.9282 H   0  0  0  0  0  0  0  0  0  0  0  0
   -7.8655   -0.5597  -24.1429 H   0  0  0  0  0  0  0  0  0  0  0  0
   -6.3115   -2.2449  -22.7033 H   0  0  0  0  0  0  0  0  0  0  0  0
   -6.7067   -3.2365  -21.2934 H   0  0  0  0  0  0  0  0  0  0  0  0
   -8.9524   -3.5471  -21.9917 H   0  0  0  0  0  0  0  0  0  0  0  0
   -7.5283   -2.9873  -24.6209 H   0  0  0  0  0  0  0  0  0  0  0  0
   -7.5247   -4.5242  -23.7424 H   0  0  0  0  0  0  0  0  0  0  0  0
   -8.5410   -5.5119  -25.6935 H   0  0  0  0  0  0  0  0  0  0  0  0
  -10.1569   -4.9078  -26.1473 H   0  0  0  0  0  0  0  0  0  0  0  0
   -8.7080   -3.9455  -26.5338 H   0  0  0  0  0  0  0  0  0  0  0  0
  1  2  1  0
  2  3  1  0
  3  4  1  0
  4  5  1  0
  5  6  1  0
  6  7  1  0
  7  8  2  0
  8  9  1  0
  9 10  2  0
 10 11  1  0
 11 12  2  0
 12 13  1  0
 13 14  2  0
 14 15  1  0
 15 16  2  0
 15 17  1  0
 14 18  1  0
 13 19  1  0
 12 20  1  0
 10 21  1  0
  8 22  1  0
  6 23  1  0
 23 24  2  0
 23 25  1  0
 25 26  1  6
 26 27  1  0
 27 28  1  0
 28 29  1  0
 29 30  2  0
 30 31  1  0
 31 32  2  0
 32 33  1  0
 33 34  1  0
 32 35  1  0
 31 36  1  0
 30 37  1  0
 28 38  1  0
 28 39  1  0
 27 40  1  0
 40 41  2  0
 40 42  1  0
 42 43  2  0
 43 44  1  0
 44 45  2  0
 45 46  1  0
 45 47  1  0
 47 48  2  0
 47 49  1  0
 44 50  1  0
 43 51  1  0
 26 52  1  0
 26 53  1  0
  5 54  1  0
  5 55  1  0
  4 56  1  1
  3 57  1  0
  3 58  1  0
  1 59  1  0
  1 60  1  0
  1 61  1  0
 25  4  1  0
 33 29  1  0
 48 42  1  0
 16  7  1  0
 48 25  1  0
 16 11  1  0
M  CHG  1  31   1
M  END
>  <cnnaffinities>  (53) 
[6.55368]

>  <score>  (53) 
6.55368

>  <index>  (53) 
55

>  <Smiles>  (53) 
C(OC([C@]1(C(N(c2c(nc(c3c(c(c(c(c23)[H])[H])[H])[H])[H])[H])C(=O)[C@]21C(N(C(c1c([n+](c(n1[H])[H])[H])[H])([H])[H])C(=O)c1c(c(c(Cl)c(c21)[H])[H])[H])([H])[H])([H])[H])[H])([H])[H])([H])([H])[H]

>  <h>  (53) 
<NA>

>  <Training>  (53) 
True

>  <Success>  (53) 
True

>  <enamine_searched>  (53) 
False

>  <enamine_id>  (53) 
nan

$$$$

     RDKit          3D

 57 62  0  0  0  0  0  0  0  0999 V2000
   -7.4431   -3.4638  -23.8147 C   0  0  0  0  0  0  0  0  0  0  0  0
   -8.3547   -2.8936  -22.7204 C   0  0  1  0  0  0  0  0  0  0  0  0
   -7.6435   -2.7325  -21.3606 C   0  0  0  0  0  0  0  0  0  0  0  0
   -7.3667   -1.3143  -21.2701 N   0  0  0  0  0  0  0  0  0  0  0  0
   -6.6029   -0.7609  -20.2182 C   0  0  0  0  0  0  0  0  0  0  0  0
   -6.8912   -1.0729  -18.9152 C   0  0  0  0  0  0  0  0  0  0  0  0
   -6.2160   -0.5977  -17.8427 N   0  0  0  0  0  0  0  0  0  0  0  0
   -5.1979    0.1960  -18.0745 C   0  0  0  0  0  0  0  0  0  0  0  0
   -4.7661    0.5704  -19.3777 C   0  0  0  0  0  0  0  0  0  0  0  0
   -3.6260    1.3954  -19.5784 C   0  0  0  0  0  0  0  0  0  0  0  0
   -3.2262    1.7274  -20.8435 C   0  0  0  0  0  0  0  0  0  0  0  0
   -3.9532    1.2621  -21.9586 C   0  0  0  0  0  0  0  0  0  0  0  0
   -5.0559    0.4605  -21.7933 C   0  0  0  0  0  0  0  0  0  0  0  0
   -5.4918    0.0945  -20.4923 C   0  0  0  0  0  0  0  0  0  0  0  0
   -5.5910    0.0999  -22.6642 H   0  0  0  0  0  0  0  0  0  0  0  0
   -3.6426    1.5353  -22.9642 H   0  0  0  0  0  0  0  0  0  0  0  0
   -2.3492    2.3471  -21.0032 H   0  0  0  0  0  0  0  0  0  0  0  0
   -3.0832    1.7491  -18.7074 H   0  0  0  0  0  0  0  0  0  0  0  0
   -4.6531    0.5760  -17.2088 H   0  0  0  0  0  0  0  0  0  0  0  0
   -7.7293   -1.7286  -18.6850 H   0  0  0  0  0  0  0  0  0  0  0  0
   -8.2510   -0.5594  -22.0127 C   0  0  0  0  0  0  0  0  0  0  0  0
   -8.4060    0.6355  -21.8919 O   0  0  0  0  0  0  0  0  0  0  0  0
   -8.9964   -1.4973  -22.9963 C   0  0  1  0  0  0  0  0  0  0  0  0
   -8.7939   -0.9945  -24.4499 C   0  0  0  0  0  0  0  0  0  0  0  0
   -9.4134    0.3013  -24.6446 N   0  0  0  0  0  0  0  0  0  0  0  0
   -8.6793    1.3969  -25.2548 C   0  0  0  0  0  0  0  0  0  0  0  0
   -8.0824    2.3624  -24.2671 C   0  0  0  0  0  0  0  0  0  0  0  0
   -6.7775    2.3038  -24.0058 N   0  0  0  0  0  0  0  0  0  0  0  0
   -6.3187    3.2892  -23.2284 C   0  0  0  0  0  0  0  0  0  0  0  0
   -7.1178    4.2967  -22.7222 C   0  0  0  0  0  0  0  0  0  0  0  0
   -8.4728    4.2144  -23.0179 C   0  0  0  0  0  0  0  0  0  0  0  0
   -8.9648    3.2364  -23.7642 N   0  0  0  0  0  0  0  0  0  0  0  0
   -9.1752    4.9741  -22.6714 H   0  0  0  0  0  0  0  0  0  0  0  0
   -6.7081    5.1199  -22.1464 H   0  0  0  0  0  0  0  0  0  0  0  0
   -5.2553    3.2659  -23.0058 H   0  0  0  0  0  0  0  0  0  0  0  0
   -9.3992    2.0072  -25.7921 H   0  0  0  0  0  0  0  0  0  0  0  0
   -7.9340    0.9982  -25.9452 H   0  0  0  0  0  0  0  0  0  0  0  0
  -10.7100    0.5245  -24.2774 C   0  0  0  0  0  0  0  0  0  0  0  0
  -11.3535    1.4807  -24.6958 O   0  0  0  0  0  0  0  0  0  0  0  0
  -11.2903   -0.4595  -23.3086 C   0  0  0  0  0  0  0  0  0  0  0  0
  -12.6576   -0.3597  -23.0396 C   0  0  0  0  0  0  0  0  0  0  0  0
  -13.2937   -1.3219  -22.2802 C   0  0  0  0  0  0  0  0  0  0  0  0
  -12.5113   -2.3310  -21.7292 C   0  0  0  0  0  0  0  0  0  0  0  0
  -13.1222   -3.2579  -20.9737 F   0  0  0  0  0  0  0  0  0  0  0  0
  -11.1475   -2.4116  -21.9184 C   0  0  0  0  0  0  0  0  0  0  0  0
  -10.5032   -1.4657  -22.7257 C   0  0  0  0  0  0  0  0  0  0  0  0
  -10.6224   -3.2283  -21.4325 H   0  0  0  0  0  0  0  0  0  0  0  0
  -14.3609   -1.3135  -22.0982 H   0  0  0  0  0  0  0  0  0  0  0  0
  -13.2113    0.4681  -23.4691 H   0  0  0  0  0  0  0  0  0  0  0  0
   -9.2292   -1.7406  -25.1341 H   0  0  0  0  0  0  0  0  0  0  0  0
   -7.7301   -0.9012  -24.6749 H   0  0  0  0  0  0  0  0  0  0  0  0
   -6.7112   -3.3001  -21.2843 H   0  0  0  0  0  0  0  0  0  0  0  0
   -8.3118   -3.0430  -20.5455 H   0  0  0  0  0  0  0  0  0  0  0  0
   -9.1501   -3.6344  -22.6218 H   0  0  0  0  0  0  0  0  0  0  0  0
   -6.5745   -2.8291  -24.0229 H   0  0  0  0  0  0  0  0  0  0  0  0
   -8.0063   -3.5941  -24.7449 H   0  0  0  0  0  0  0  0  0  0  0  0
   -7.0819   -4.4563  -23.5176 H   0  0  0  0  0  0  0  0  0  0  0  0
  1  2  1  0
  2  3  1  0
  3  4  1  0
  4  5  1  0
  5  6  2  0
  6  7  1  0
  7  8  2  0
  8  9  1  0
  9 10  2  0
 10 11  1  0
 11 12  2  0
 12 13  1  0
 13 14  2  0
 13 15  1  0
 12 16  1  0
 11 17  1  0
 10 18  1  0
  8 19  1  0
  6 20  1  0
  4 21  1  0
 21 22  2  0
 21 23  1  0
 23 24  1  6
 24 25  1  0
 25 26  1  0
 26 27  1  0
 27 28  2  0
 28 29  1  0
 29 30  2  0
 30 31  1  0
 31 32  2  0
 31 33  1  0
 30 34  1  0
 29 35  1  0
 26 36  1  0
 26 37  1  0
 25 38  1  0
 38 39  2  0
 38 40  1  0
 40 41  2  0
 41 42  1  0
 42 43  2  0
 43 44  1  0
 43 45  1  0
 45 46  2  0
 45 47  1  0
 42 48  1  0
 41 49  1  0
 24 50  1  0
 24 51  1  0
  3 52  1  0
  3 53  1  0
  2 54  1  1
  1 55  1  0
  1 56  1  0
  1 57  1  0
 23  2  1  0
 32 27  1  0
 46 40  1  0
 14  5  1  0
 46 23  1  0
 14  9  1  0
M  END
>  <cnnaffinities>  (54) 
[6.33323]

>  <score>  (54) 
6.33323

>  <index>  (54) 
56

>  <Smiles>  (54) 
C([C@]1(C(N(c2c(nc(c3c(c(c(c(c23)[H])[H])[H])[H])[H])[H])C(=O)[C@]21C(N(C(c1nc(c(c(n1)[H])[H])[H])([H])[H])C(=O)c1c(c(c(F)c(c21)[H])[H])[H])([H])[H])([H])[H])[H])([H])([H])[H]

>  <h>  (54) 
<NA>

>  <Training>  (54) 
True

>  <Success>  (54) 
True

>  <enamine_searched>  (54) 
False

>  <enamine_id>  (54) 
nan

$$$$

     RDKit          3D

 59 63  0  0  0  0  0  0  0  0999 V2000
   -7.3785    3.3250  -21.9649 C   0  0  0  0  0  0  0  0  0  0  0  0
   -8.2649    2.8502  -23.0156 N   0  0  0  0  0  0  0  0  0  0  0  0
   -7.6955    2.1342  -24.0307 C   0  0  0  0  0  0  0  0  0  0  0  0
   -6.4896    1.9732  -24.1343 O   0  0  0  0  0  0  0  0  0  0  0  0
   -8.6697    1.5396  -25.0377 C   0  0  0  0  0  0  0  0  0  0  0  0
   -9.3777    0.4253  -24.4436 N   0  0  0  0  0  0  0  0  0  0  0  0
   -8.6548   -0.8124  -24.1836 C   0  0  0  0  0  0  0  0  0  0  0  0
   -9.1012   -1.5148  -22.8653 C   0  0  2  0  0  0  0  0  0  0  0  0
   -8.5522   -0.7420  -21.6390 C   0  0  0  0  0  0  0  0  0  0  0  0
   -9.0113    0.2735  -21.1463 O   0  0  0  0  0  0  0  0  0  0  0  0
   -7.4191   -1.3732  -21.1901 N   0  0  0  0  0  0  0  0  0  0  0  0
   -6.6173   -0.8006  -20.1689 C   0  0  0  0  0  0  0  0  0  0  0  0
   -6.9272   -1.0475  -18.8586 C   0  0  0  0  0  0  0  0  0  0  0  0
   -6.2235   -0.5705  -17.8049 N   0  0  0  0  0  0  0  0  0  0  0  0
   -5.1944    0.1977  -18.0682 C   0  0  0  0  0  0  0  0  0  0  0  0
   -4.7693    0.5463  -19.3810 C   0  0  0  0  0  0  0  0  0  0  0  0
   -3.6413    1.3754  -19.6175 C   0  0  0  0  0  0  0  0  0  0  0  0
   -3.2742    1.7051  -20.8921 C   0  0  0  0  0  0  0  0  0  0  0  0
   -4.0208    1.2299  -21.9925 C   0  0  0  0  0  0  0  0  0  0  0  0
   -5.1028    0.4043  -21.7930 C   0  0  0  0  0  0  0  0  0  0  0  0
   -5.5030    0.0365  -20.4802 C   0  0  0  0  0  0  0  0  0  0  0  0
   -5.6604    0.0421  -22.6518 H   0  0  0  0  0  0  0  0  0  0  0  0
   -3.7348    1.4984  -23.0040 H   0  0  0  0  0  0  0  0  0  0  0  0
   -2.4028    2.3285  -21.0678 H   0  0  0  0  0  0  0  0  0  0  0  0
   -3.0859    1.7431  -18.7593 H   0  0  0  0  0  0  0  0  0  0  0  0
   -4.6268    0.5820  -17.2197 H   0  0  0  0  0  0  0  0  0  0  0  0
   -7.7873   -1.6697  -18.6221 H   0  0  0  0  0  0  0  0  0  0  0  0
   -7.0677   -2.5633  -21.9322 C   0  0  0  0  0  0  0  0  0  0  0  0
   -8.3647   -2.9329  -22.7152 C   0  0  0  0  0  0  0  0  0  0  0  0
   -7.9748   -3.6209  -24.0383 C   0  0  0  0  0  0  0  0  0  0  0  0
   -7.4951   -4.5848  -23.8247 H   0  0  0  0  0  0  0  0  0  0  0  0
   -7.2608   -3.0335  -24.6261 H   0  0  0  0  0  0  0  0  0  0  0  0
   -8.8542   -3.8211  -24.6621 H   0  0  0  0  0  0  0  0  0  0  0  0
   -9.1525   -3.9867  -21.9149 C   0  0  0  0  0  0  0  0  0  0  0  0
   -9.3167   -3.6804  -20.8784 H   0  0  0  0  0  0  0  0  0  0  0  0
   -8.5932   -4.9303  -21.8863 H   0  0  0  0  0  0  0  0  0  0  0  0
  -10.1203   -4.1924  -22.3811 H   0  0  0  0  0  0  0  0  0  0  0  0
   -6.2217   -2.3821  -22.6189 H   0  0  0  0  0  0  0  0  0  0  0  0
   -6.7544   -3.3616  -21.2479 H   0  0  0  0  0  0  0  0  0  0  0  0
  -10.6202   -1.4425  -22.8186 C   0  0  0  0  0  0  0  0  0  0  0  0
  -11.3146   -2.0314  -21.7711 C   0  0  0  0  0  0  0  0  0  0  0  0
  -12.6899   -2.1528  -21.8204 C   0  0  0  0  0  0  0  0  0  0  0  0
  -13.5023   -3.0313  -20.5599 Cl  0  0  0  0  0  0  0  0  0  0  0  0
  -13.4447   -1.5417  -22.8203 C   0  0  0  0  0  0  0  0  0  0  0  0
  -12.7720   -0.7555  -23.7291 C   0  0  0  0  0  0  0  0  0  0  0  0
  -11.3861   -0.6389  -23.6705 C   0  0  0  0  0  0  0  0  0  0  0  0
  -10.7404    0.4874  -24.3976 C   0  0  0  0  0  0  0  0  0  0  0  0
  -11.3856    1.4238  -24.8487 O   0  0  0  0  0  0  0  0  0  0  0  0
  -13.3015   -0.1772  -24.4755 H   0  0  0  0  0  0  0  0  0  0  0  0
  -14.5250   -1.6256  -22.8183 H   0  0  0  0  0  0  0  0  0  0  0  0
  -10.7650   -2.3892  -20.9224 H   0  0  0  0  0  0  0  0  0  0  0  0
   -7.5886   -0.5749  -24.1270 H   0  0  0  0  0  0  0  0  0  0  0  0
   -8.8321   -1.5100  -25.0108 H   0  0  0  0  0  0  0  0  0  0  0  0
   -9.4285    2.2711  -25.3327 H   0  0  0  0  0  0  0  0  0  0  0  0
   -8.1105    1.2243  -25.9251 H   0  0  0  0  0  0  0  0  0  0  0  0
   -9.2309    2.6750  -22.7659 H   0  0  0  0  0  0  0  0  0  0  0  0
   -7.9554    3.8360  -21.1917 H   0  0  0  0  0  0  0  0  0  0  0  0
   -6.8198    2.4865  -21.5217 H   0  0  0  0  0  0  0  0  0  0  0  0
   -6.6636    4.0392  -22.3850 H   0  0  0  0  0  0  0  0  0  0  0  0
  1  2  1  0
  2  3  1  0
  3  4  2  0
  3  5  1  0
  5  6  1  0
  6  7  1  0
  8  7  1  6
  8  9  1  0
  9 10  2  0
  9 11  1  0
 11 12  1  0
 12 13  2  0
 13 14  1  0
 14 15  2  0
 15 16  1  0
 16 17  2  0
 17 18  1  0
 18 19  2  0
 19 20  1  0
 20 21  2  0
 20 22  1  0
 19 23  1  0
 18 24  1  0
 17 25  1  0
 15 26  1  0
 13 27  1  0
 11 28  1  0
 28 29  1  0
 29 30  1  0
 30 31  1  0
 30 32  1  0
 30 33  1  0
 29 34  1  0
 34 35  1  0
 34 36  1  0
 34 37  1  0
 28 38  1  0
 28 39  1  0
  8 40  1  0
 40 41  2  0
 41 42  1  0
 42 43  1  0
 42 44  2  0
 44 45  1  0
 45 46  2  0
 46 47  1  0
 47 48  2  0
 45 49  1  0
 44 50  1  0
 41 51  1  0
  7 52  1  0
  7 53  1  0
  5 54  1  0
  5 55  1  0
  2 56  1  0
  1 57  1  0
  1 58  1  0
  1 59  1  0
 47  6  1  0
 29  8  1  0
 46 40  1  0
 21 12  1  0
 21 16  1  0
M  END
>  <cnnaffinities>  (55) 
[6.42628, 6.44185, 5.84515, 5.83629]

>  <score>  (55) 
6.42628

>  <index>  (55) 
57

>  <Smiles>  (55) 
C(N(C(=O)C(N1C([C@@]2(C(=O)N(c3c(nc(c4c(c(c(c(c34)[H])[H])[H])[H])[H])[H])C(C2(C([H])([H])[H])C([H])([H])[H])([H])[H])c2c(c(Cl)c(c(c2C1=O)[H])[H])[H])([H])[H])([H])[H])[H])([H])([H])[H]

>  <h>  (55) 
<NA>

>  <Training>  (55) 
True

>  <Success>  (55) 
True

>  <enamine_searched>  (55) 
False

>  <enamine_id>  (55) 
nan

$$$$

     RDKit          3D

 42 45  0  0  0  0  0  0  0  0999 V2000
  -10.9707   -5.0736  -23.5540 C   0  0  0  0  0  0  0  0  0  0  0  0
  -10.0646   -3.9314  -23.6515 N   0  0  0  0  0  0  0  0  0  0  0  0
   -9.4210   -3.4035  -22.4521 C   0  0  0  0  0  0  0  0  0  0  0  0
   -9.4103   -1.8686  -22.5090 C   0  0  1  0  0  0  0  0  0  0  0  0
   -8.6521   -1.1453  -21.3933 C   0  0  0  0  0  0  0  0  0  0  0  0
   -9.1671   -0.2239  -20.7843 O   0  0  0  0  0  0  0  0  0  0  0  0
   -7.3260   -1.4710  -21.1989 N   0  0  0  0  0  0  0  0  0  0  0  0
   -6.5699   -0.8515  -20.1772 C   0  0  0  0  0  0  0  0  0  0  0  0
   -6.9004   -1.0631  -18.8646 C   0  0  0  0  0  0  0  0  0  0  0  0
   -6.2101   -0.5560  -17.8163 N   0  0  0  0  0  0  0  0  0  0  0  0
   -5.1757    0.2045  -18.0828 C   0  0  0  0  0  0  0  0  0  0  0  0
   -4.7382    0.5300  -19.3968 C   0  0  0  0  0  0  0  0  0  0  0  0
   -3.6176    1.3684  -19.6316 C   0  0  0  0  0  0  0  0  0  0  0  0
   -3.2465    1.6815  -20.9107 C   0  0  0  0  0  0  0  0  0  0  0  0
   -3.9936    1.1877  -22.0052 C   0  0  0  0  0  0  0  0  0  0  0  0
   -5.0764    0.3643  -21.8028 C   0  0  0  0  0  0  0  0  0  0  0  0
   -5.4631    0.0017  -20.4869 C   0  0  0  0  0  0  0  0  0  0  0  0
   -5.6227   -0.0366  -22.6542 H   0  0  0  0  0  0  0  0  0  0  0  0
   -3.6753    1.4125  -23.0186 H   0  0  0  0  0  0  0  0  0  0  0  0
   -2.3768    2.3074  -21.0931 H   0  0  0  0  0  0  0  0  0  0  0  0
   -3.0740    1.7563  -18.7750 H   0  0  0  0  0  0  0  0  0  0  0  0
   -4.6299    0.6099  -17.2324 H   0  0  0  0  0  0  0  0  0  0  0  0
   -7.7586   -1.6818  -18.6135 H   0  0  0  0  0  0  0  0  0  0  0  0
   -6.8149   -1.9108  -21.9519 H   0  0  0  0  0  0  0  0  0  0  0  0
   -8.9016   -1.3856  -23.8527 C   0  0  0  0  0  0  0  0  0  0  0  0
   -8.3626   -0.1019  -23.9721 C   0  0  0  0  0  0  0  0  0  0  0  0
   -7.8885    0.3321  -25.1970 C   0  0  0  0  0  0  0  0  0  0  0  0
   -7.1324    1.9006  -25.3032 Cl  0  0  0  0  0  0  0  0  0  0  0  0
   -7.9867   -0.4730  -26.3282 C   0  0  0  0  0  0  0  0  0  0  0  0
   -8.5587   -1.7308  -26.2158 C   0  0  0  0  0  0  0  0  0  0  0  0
   -8.9933   -2.2041  -24.9768 C   0  0  0  0  0  0  0  0  0  0  0  0
   -9.5622   -3.5925  -24.8877 C   0  0  0  0  0  0  0  0  0  0  0  0
   -9.6215   -4.3415  -25.8512 O   0  0  0  0  0  0  0  0  0  0  0  0
   -8.6786   -2.3765  -27.0804 H   0  0  0  0  0  0  0  0  0  0  0  0
   -7.6089   -0.1054  -27.2746 H   0  0  0  0  0  0  0  0  0  0  0  0
   -8.2940    0.5469  -23.1046 H   0  0  0  0  0  0  0  0  0  0  0  0
  -10.4477   -1.5309  -22.3857 H   0  0  0  0  0  0  0  0  0  0  0  0
   -8.4043   -3.8153  -22.3358 H   0  0  0  0  0  0  0  0  0  0  0  0
  -10.0209   -3.7277  -21.5978 H   0  0  0  0  0  0  0  0  0  0  0  0
  -11.9683   -4.8512  -23.9574 H   0  0  0  0  0  0  0  0  0  0  0  0
  -10.5893   -5.9473  -24.0935 H   0  0  0  0  0  0  0  0  0  0  0  0
  -11.0846   -5.3251  -22.4979 H   0  0  0  0  0  0  0  0  0  0  0  0
  1  2  1  0
  2  3  1  0
  3  4  1  0
  4  5  1  0
  5  6  2  0
  5  7  1  0
  7  8  1  0
  8  9  2  0
  9 10  1  0
 10 11  2  0
 11 12  1  0
 12 13  2  0
 13 14  1  0
 14 15  2  0
 15 16  1  0
 16 17  2  0
 16 18  1  0
 15 19  1  0
 14 20  1  0
 13 21  1  0
 11 22  1  0
  9 23  1  0
  7 24  1  0
  4 25  1  0
 25 26  2  0
 26 27  1  0
 27 28  1  0
 27 29  2  0
 29 30  1  0
 30 31  2  0
 31 32  1  0
 32 33  2  0
 30 34  1  0
 29 35  1  0
 26 36  1  0
  4 37  1  6
  3 38  1  0
  3 39  1  0
  1 40  1  0
  1 41  1  0
  1 42  1  0
 32  2  1  0
 17  8  1  0
 31 25  1  0
 17 12  1  0
M  END
>  <cnnaffinities>  (56) 
[4.77335, 5.27543]

>  <score>  (56) 
4.77335

>  <index>  (56) 
58

>  <Smiles>  (56) 
C(N1C([C@@](C(=O)N(c2c(nc(c3c(c(c(c(c23)[H])[H])[H])[H])[H])[H])[H])(c2c(c(Cl)c(c(c2C1=O)[H])[H])[H])[H])([H])[H])([H])([H])[H]

>  <h>  (56) 
<NA>

>  <Training>  (56) 
True

>  <Success>  (56) 
True

>  <enamine_searched>  (56) 
False

>  <enamine_id>  (56) 
nan

$$$$

     RDKit          3D

 60 65  0  0  0  0  0  0  0  0999 V2000
   -7.0895    3.4424  -22.7433 C   0  0  0  0  0  0  0  0  0  0  0  0
   -7.8031    2.7507  -23.7961 N   0  0  0  0  0  0  0  0  0  0  0  0
   -7.1458    1.8547  -24.5626 C   0  0  0  0  0  0  0  0  0  0  0  0
   -5.9321    1.6899  -24.5073 O   0  0  0  0  0  0  0  0  0  0  0  0
   -8.0369    1.0507  -25.5102 C   0  0  0  0  0  0  0  0  0  0  0  0
   -8.9400    0.1992  -24.7664 N   0  0  0  0  0  0  0  0  0  0  0  0
   -8.4799   -1.1101  -24.3341 C   0  0  0  0  0  0  0  0  0  0  0  0
   -9.0127   -1.4864  -22.9295 C   0  0  2  0  0  0  0  0  0  0  0  0
   -8.3308   -0.6030  -21.8653 C   0  0  0  0  0  0  0  0  0  0  0  0
   -8.5270    0.5783  -21.6349 O   0  0  0  0  0  0  0  0  0  0  0  0
   -7.4135   -1.3709  -21.1947 N   0  0  0  0  0  0  0  0  0  0  0  0
   -6.6123   -0.8113  -20.1785 C   0  0  0  0  0  0  0  0  0  0  0  0
   -6.9018   -1.0910  -18.8684 C   0  0  0  0  0  0  0  0  0  0  0  0
   -6.2192   -0.6008  -17.8100 N   0  0  0  0  0  0  0  0  0  0  0  0
   -5.2066    0.1914  -18.0742 C   0  0  0  0  0  0  0  0  0  0  0  0
   -4.7907    0.5527  -19.3875 C   0  0  0  0  0  0  0  0  0  0  0  0
   -3.6542    1.3747  -19.6068 C   0  0  0  0  0  0  0  0  0  0  0  0
   -3.2758    1.7104  -20.8784 C   0  0  0  0  0  0  0  0  0  0  0  0
   -4.0196    1.2503  -21.9839 C   0  0  0  0  0  0  0  0  0  0  0  0
   -5.1044    0.4269  -21.7996 C   0  0  0  0  0  0  0  0  0  0  0  0
   -5.5204    0.0543  -20.4885 C   0  0  0  0  0  0  0  0  0  0  0  0
   -5.6312    0.0568  -22.6719 H   0  0  0  0  0  0  0  0  0  0  0  0
   -3.7351    1.5303  -22.9936 H   0  0  0  0  0  0  0  0  0  0  0  0
   -2.3918    2.3189  -21.0396 H   0  0  0  0  0  0  0  0  0  0  0  0
   -3.1035    1.7273  -18.7409 H   0  0  0  0  0  0  0  0  0  0  0  0
   -4.6486    0.5784  -17.2239 H   0  0  0  0  0  0  0  0  0  0  0  0
   -7.7456   -1.7397  -18.6406 H   0  0  0  0  0  0  0  0  0  0  0  0
   -7.2979   -2.7316  -21.6664 C   0  0  0  0  0  0  0  0  0  0  0  0
   -8.5626   -2.9195  -22.5158 C   0  0  2  0  0  0  0  0  0  0  0  0
   -8.3423   -3.9423  -23.6455 C   0  0  0  0  0  0  0  0  0  0  0  0
   -8.0568   -5.2918  -23.0744 C   0  0  0  0  0  0  0  0  0  0  0  0
   -6.8381   -5.7790  -22.8783 N   0  0  0  0  0  0  0  0  0  0  0  0
   -7.0330   -6.9568  -22.2903 N   0  0  0  0  0  0  0  0  0  0  0  0
   -8.3172   -7.1623  -22.1478 N   0  0  0  0  0  2  0  0  0  0  0  0
   -8.9894   -6.1241  -22.6347 N   0  0  0  0  0  0  0  0  0  0  0  0
   -7.4862   -3.6613  -24.2642 H   0  0  0  0  0  0  0  0  0  0  0  0
   -9.2263   -4.0187  -24.2834 H   0  0  0  0  0  0  0  0  0  0  0  0
   -9.3362   -3.3466  -21.8710 H   0  0  0  0  0  0  0  0  0  0  0  0
   -6.3861   -2.8964  -22.2649 H   0  0  0  0  0  0  0  0  0  0  0  0
   -7.2502   -3.4389  -20.8362 H   0  0  0  0  0  0  0  0  0  0  0  0
  -10.5028   -1.2430  -22.9197 C   0  0  0  0  0  0  0  0  0  0  0  0
  -11.3470   -1.9367  -22.0556 C   0  0  0  0  0  0  0  0  0  0  0  0
  -12.7105   -1.7329  -22.1170 C   0  0  0  0  0  0  0  0  0  0  0  0
  -13.7028   -2.6653  -21.0376 Cl  0  0  0  0  0  0  0  0  0  0  0  0
  -13.2923   -0.8126  -22.9860 C   0  0  0  0  0  0  0  0  0  0  0  0
  -12.4439   -0.0587  -23.7738 C   0  0  0  0  0  0  0  0  0  0  0  0
  -11.0646   -0.2307  -23.7054 C   0  0  0  0  0  0  0  0  0  0  0  0
  -10.1727    0.6886  -24.4659 C   0  0  0  0  0  0  0  0  0  0  0  0
  -10.5115    1.8364  -24.7607 O   0  0  0  0  0  0  0  0  0  0  0  0
  -12.8252    0.6902  -24.4528 H   0  0  0  0  0  0  0  0  0  0  0  0
  -14.3688   -0.6704  -23.0082 H   0  0  0  0  0  0  0  0  0  0  0  0
  -10.9755   -2.6224  -21.3035 H   0  0  0  0  0  0  0  0  0  0  0  0
   -7.3829   -1.1150  -24.3157 H   0  0  0  0  0  0  0  0  0  0  0  0
   -8.8250   -1.8652  -25.0503 H   0  0  0  0  0  0  0  0  0  0  0  0
   -8.6591    1.7256  -26.1014 H   0  0  0  0  0  0  0  0  0  0  0  0
   -7.4227    0.4484  -26.1830 H   0  0  0  0  0  0  0  0  0  0  0  0
   -8.8166    2.7336  -23.7824 H   0  0  0  0  0  0  0  0  0  0  0  0
   -7.7914    4.0702  -22.1931 H   0  0  0  0  0  0  0  0  0  0  0  0
   -6.3136    4.0815  -23.1782 H   0  0  0  0  0  0  0  0  0  0  0  0
   -6.6276    2.7267  -22.0462 H   0  0  0  0  0  0  0  0  0  0  0  0
  1  2  1  0
  2  3  1  0
  3  4  2  0
  3  5  1  0
  5  6  1  0
  6  7  1  0
  8  7  1  6
  8  9  1  0
  9 10  2  0
  9 11  1  0
 11 12  1  0
 12 13  2  0
 13 14  1  0
 14 15  2  0
 15 16  1  0
 16 17  2  0
 17 18  1  0
 18 19  2  0
 19 20  1  0
 20 21  2  0
 20 22  1  0
 19 23  1  0
 18 24  1  0
 17 25  1  0
 15 26  1  0
 13 27  1  0
 11 28  1  0
 28 29  1  0
 29 30  1  0
 30 31  1  0
 31 32  1  0
 32 33  2  0
 33 34  1  0
 34 35  1  0
 30 36  1  0
 30 37  1  0
 29 38  1  1
 28 39  1  0
 28 40  1  0
  8 41  1  0
 41 42  2  0
 42 43  1  0
 43 44  1  0
 43 45  2  0
 45 46  1  0
 46 47  2  0
 47 48  1  0
 48 49  2  0
 46 50  1  0
 45 51  1  0
 42 52  1  0
  7 53  1  0
  7 54  1  0
  5 55  1  0
  5 56  1  0
  2 57  1  0
  1 58  1  0
  1 59  1  0
  1 60  1  0
 48  6  1  0
 29  8  1  0
 35 31  2  0
 47 41  1  0
 21 12  1  0
 21 16  1  0
M  CHG  1  34  -1
M  END
>  <cnnaffinities>  (57) 
[6.71264]

>  <score>  (57) 
6.71264

>  <index>  (57) 
59

>  <Smiles>  (57) 
C(N(C(=O)C(N1C([C@@]2(C(=O)N(c3c(nc(c4c(c(c(c(c34)[H])[H])[H])[H])[H])[H])C([C@@]2(C(c2nn[n-]n2)([H])[H])[H])([H])[H])c2c(c(Cl)c(c(c2C1=O)[H])[H])[H])([H])[H])([H])[H])[H])([H])([H])[H]

>  <h>  (57) 
<NA>

>  <Training>  (57) 
True

>  <Success>  (57) 
True

>  <enamine_searched>  (57) 
False

>  <enamine_id>  (57) 
nan

$$$$

     RDKit          3D

 62 67  0  0  0  0  0  0  0  0999 V2000
  -11.6846    3.3087  -22.6196 C   0  0  0  0  0  0  0  0  0  0  0  0
  -10.8545    2.0648  -22.2885 C   0  0  0  0  0  0  0  0  0  0  0  0
   -9.4788    2.1100  -22.7733 N   0  0  0  0  0  0  0  0  0  0  0  0
   -8.5735    2.7287  -22.0031 N   0  0  0  0  0  0  0  0  0  0  0  0
   -7.4551    2.7686  -22.7041 C   0  0  0  0  0  0  0  0  0  0  0  0
   -7.6169    2.1214  -23.9438 C   0  0  0  0  0  0  0  0  0  0  0  0
   -8.9334    1.7045  -23.9498 C   0  0  0  0  0  0  0  0  0  0  0  0
   -9.7105    0.9692  -24.9901 C   0  0  0  0  0  0  0  0  0  0  0  0
  -10.2389   -0.3094  -24.5422 N   0  0  0  0  0  0  0  0  0  0  0  0
   -9.3117   -1.3828  -24.2336 C   0  0  0  0  0  0  0  0  0  0  0  0
   -9.5165   -1.9900  -22.8219 C   0  0  2  0  0  0  0  0  0  0  0  0
   -8.9634   -1.0627  -21.7056 C   0  0  0  0  0  0  0  0  0  0  0  0
   -9.5865   -0.2381  -21.0662 O   0  0  0  0  0  0  0  0  0  0  0  0
   -7.6275   -1.3378  -21.5132 N   0  0  0  0  0  0  0  0  0  0  0  0
   -6.9313   -0.8394  -20.3906 C   0  0  0  0  0  0  0  0  0  0  0  0
   -7.3525   -1.1291  -19.1151 C   0  0  0  0  0  0  0  0  0  0  0  0
   -6.6951   -0.7329  -18.0001 N   0  0  0  0  0  0  0  0  0  0  0  0
   -5.6243    0.0066  -18.1536 C   0  0  0  0  0  0  0  0  0  0  0  0
   -5.1068    0.4114  -19.4165 C   0  0  0  0  0  0  0  0  0  0  0  0
   -3.9995    1.2906  -19.5436 C   0  0  0  0  0  0  0  0  0  0  0  0
   -3.5312    1.6389  -20.7792 C   0  0  0  0  0  0  0  0  0  0  0  0
   -4.1298    1.1129  -21.9443 C   0  0  0  0  0  0  0  0  0  0  0  0
   -5.1924    0.2432  -21.8461 C   0  0  0  0  0  0  0  0  0  0  0  0
   -5.7411   -0.0752  -20.5785 C   0  0  0  0  0  0  0  0  0  0  0  0
   -5.5963   -0.2265  -22.7374 H   0  0  0  0  0  0  0  0  0  0  0  0
   -3.7351    1.3703  -22.9226 H   0  0  0  0  0  0  0  0  0  0  0  0
   -2.6859    2.3156  -20.8757 H   0  0  0  0  0  0  0  0  0  0  0  0
   -3.5550    1.6896  -18.6370 H   0  0  0  0  0  0  0  0  0  0  0  0
   -5.1046    0.3228  -17.2492 H   0  0  0  0  0  0  0  0  0  0  0  0
   -8.2584   -1.7115  -18.9522 H   0  0  0  0  0  0  0  0  0  0  0  0
   -7.2056   -2.5498  -22.1919 C   0  0  0  0  0  0  0  0  0  0  0  0
   -8.5465   -3.1938  -22.6012 C   0  0  2  0  0  0  0  0  0  0  0  0
   -8.3795   -4.1710  -23.7533 C   0  0  0  0  0  0  0  0  0  0  0  0
   -9.3433   -4.5603  -24.0963 H   0  0  0  0  0  0  0  0  0  0  0  0
   -7.7401   -5.0125  -23.4649 H   0  0  0  0  0  0  0  0  0  0  0  0
   -7.8899   -3.6737  -24.5994 H   0  0  0  0  0  0  0  0  0  0  0  0
   -8.9102   -3.7151  -21.7098 H   0  0  0  0  0  0  0  0  0  0  0  0
   -6.5758   -2.3246  -23.0697 H   0  0  0  0  0  0  0  0  0  0  0  0
   -6.6195   -3.1887  -21.5193 H   0  0  0  0  0  0  0  0  0  0  0  0
  -11.0052   -2.2016  -22.6067 C   0  0  0  0  0  0  0  0  0  0  0  0
  -11.4670   -3.0314  -21.5839 C   0  0  0  0  0  0  0  0  0  0  0  0
  -12.7774   -2.9206  -21.1575 C   0  0  0  0  0  0  0  0  0  0  0  0
  -13.1643   -3.6210  -20.0823 F   0  0  0  0  0  0  0  0  0  0  0  0
  -13.7214   -2.0930  -21.7540 C   0  0  0  0  0  0  0  0  0  0  0  0
  -13.2948   -1.3403  -22.8287 C   0  0  0  0  0  0  0  0  0  0  0  0
  -11.9611   -1.3856  -23.2392 C   0  0  0  0  0  0  0  0  0  0  0  0
  -11.5712   -0.3874  -24.2758 C   0  0  0  0  0  0  0  0  0  0  0  0
  -12.4004    0.3829  -24.7526 O   0  0  0  0  0  0  0  0  0  0  0  0
  -13.9651   -0.6808  -23.3697 H   0  0  0  0  0  0  0  0  0  0  0  0
  -14.7243   -2.0203  -21.3424 H   0  0  0  0  0  0  0  0  0  0  0  0
  -10.7940   -3.7263  -21.0895 H   0  0  0  0  0  0  0  0  0  0  0  0
   -9.4188   -2.1846  -24.9771 H   0  0  0  0  0  0  0  0  0  0  0  0
   -8.3050   -0.9653  -24.3209 H   0  0  0  0  0  0  0  0  0  0  0  0
   -9.0624    0.8017  -25.8581 H   0  0  0  0  0  0  0  0  0  0  0  0
  -10.5799    1.5591  -25.2880 H   0  0  0  0  0  0  0  0  0  0  0  0
   -6.8803    1.9663  -24.7201 H   0  0  0  0  0  0  0  0  0  0  0  0
   -6.6016    3.2753  -22.2757 H   0  0  0  0  0  0  0  0  0  0  0  0
  -11.3558    1.1707  -22.6617 H   0  0  0  0  0  0  0  0  0  0  0  0
  -10.7343    1.9226  -21.2150 H   0  0  0  0  0  0  0  0  0  0  0  0
  -11.9901    3.3270  -23.6750 H   0  0  0  0  0  0  0  0  0  0  0  0
  -11.1266    4.2256  -22.4020 H   0  0  0  0  0  0  0  0  0  0  0  0
  -12.5990    3.3130  -22.0122 H   0  0  0  0  0  0  0  0  0  0  0  0
  1  2  1  0
  2  3  1  0
  3  4  1  0
  4  5  2  0
  5  6  1  0
  6  7  2  0
  7  8  1  0
  8  9  1  0
  9 10  1  0
 11 10  1  6
 11 12  1  0
 12 13  2  0
 12 14  1  0
 14 15  1  0
 15 16  2  0
 16 17  1  0
 17 18  2  0
 18 19  1  0
 19 20  2  0
 20 21  1  0
 21 22  2  0
 22 23  1  0
 23 24  2  0
 23 25  1  0
 22 26  1  0
 21 27  1  0
 20 28  1  0
 18 29  1  0
 16 30  1  0
 14 31  1  0
 31 32  1  0
 32 33  1  0
 33 34  1  0
 33 35  1  0
 33 36  1  0
 32 37  1  1
 31 38  1  0
 31 39  1  0
 11 40  1  0
 40 41  2  0
 41 42  1  0
 42 43  1  0
 42 44  2  0
 44 45  1  0
 45 46  2  0
 46 47  1  0
 47 48  2  0
 45 49  1  0
 44 50  1  0
 41 51  1  0
 10 52  1  0
 10 53  1  0
  8 54  1  0
  8 55  1  0
  6 56  1  0
  5 57  1  0
  2 58  1  0
  2 59  1  0
  1 60  1  0
  1 61  1  0
  1 62  1  0
  7  3  1  0
 47  9  1  0
 32 11  1  0
 46 40  1  0
 24 15  1  0
 24 19  1  0
M  END
>  <cnnaffinities>  (58) 
[6.64053]

>  <score>  (58) 
6.64053

>  <index>  (58) 
60

>  <Smiles>  (58) 
C(C(n1nc(c(c1C(N1C([C@@]2(C(=O)N(c3c(nc(c4c(c(c(c(c34)[H])[H])[H])[H])[H])[H])C([C@@]2(C([H])([H])[H])[H])([H])[H])c2c(c(F)c(c(c2C1=O)[H])[H])[H])([H])[H])([H])[H])[H])[H])([H])[H])([H])([H])[H]

>  <h>  (58) 
<NA>

>  <Training>  (58) 
True

>  <Success>  (58) 
True

>  <enamine_searched>  (58) 
False

>  <enamine_id>  (58) 
nan

$$$$

     RDKit          3D

 44 47  0  0  0  0  0  0  0  0999 V2000
   -8.6216   -3.4093  -21.2095 O   0  0  0  0  0  0  0  0  0  0  0  0
   -7.5273   -2.9063  -21.4334 C   0  0  0  0  0  0  0  0  0  0  0  0
   -7.3943   -1.3766  -21.3044 C   0  0  0  0  0  0  0  0  0  0  0  0
   -6.5248   -0.8231  -20.2013 C   0  0  0  0  0  0  0  0  0  0  0  0
   -6.8512   -1.0522  -18.8894 C   0  0  0  0  0  0  0  0  0  0  0  0
   -6.1847   -0.5518  -17.8223 N   0  0  0  0  0  0  0  0  0  0  0  0
   -5.1488    0.2220  -18.0568 C   0  0  0  0  0  0  0  0  0  0  0  0
   -4.7042    0.5658  -19.3622 C   0  0  0  0  0  0  0  0  0  0  0  0
   -3.5747    1.3958  -19.5899 C   0  0  0  0  0  0  0  0  0  0  0  0
   -3.1849    1.7076  -20.8690 C   0  0  0  0  0  0  0  0  0  0  0  0
   -3.9175    1.2198  -21.9699 C   0  0  0  0  0  0  0  0  0  0  0  0
   -5.0024    0.4025  -21.7685 C   0  0  0  0  0  0  0  0  0  0  0  0
   -5.4239    0.0452  -20.4652 C   0  0  0  0  0  0  0  0  0  0  0  0
   -5.5052   -0.0298  -22.6290 H   0  0  0  0  0  0  0  0  0  0  0  0
   -3.5958    1.4356  -22.9856 H   0  0  0  0  0  0  0  0  0  0  0  0
   -2.3128    2.3254  -21.0481 H   0  0  0  0  0  0  0  0  0  0  0  0
   -3.0275    1.7755  -18.7314 H   0  0  0  0  0  0  0  0  0  0  0  0
   -4.6120    0.6152  -17.1891 H   0  0  0  0  0  0  0  0  0  0  0  0
   -7.7195   -1.6629  -18.6497 H   0  0  0  0  0  0  0  0  0  0  0  0
   -7.0911   -0.9394  -22.2557 H   0  0  0  0  0  0  0  0  0  0  0  0
   -8.4273   -1.0520  -21.1526 H   0  0  0  0  0  0  0  0  0  0  0  0
   -6.4682   -3.6635  -21.8629 N   0  0  0  0  0  0  0  0  0  0  0  0
   -5.2110   -3.0863  -22.3447 C   0  0  0  0  0  0  0  0  0  0  0  0
   -4.2155   -4.1746  -22.7428 C   0  0  0  0  0  0  0  0  0  0  0  0
   -4.7358   -5.1592  -23.7956 C   0  0  0  0  0  0  0  0  0  0  0  0
   -4.4204   -4.7622  -25.2684 C   0  0  0  0  0  0  0  0  0  0  0  0
   -3.4924   -5.9897  -25.4351 C   0  0  0  0  0  0  0  0  0  0  0  0
   -3.8023   -6.3975  -23.9744 C   0  0  0  0  0  0  0  0  0  0  0  0
   -4.3051   -7.3622  -23.8517 H   0  0  0  0  0  0  0  0  0  0  0  0
   -2.9354   -6.3941  -23.3057 H   0  0  0  0  0  0  0  0  0  0  0  0
   -2.4421   -5.7585  -25.6406 H   0  0  0  0  0  0  0  0  0  0  0  0
   -3.8087   -6.7087  -26.1976 H   0  0  0  0  0  0  0  0  0  0  0  0
   -3.9364   -3.7849  -25.3665 H   0  0  0  0  0  0  0  0  0  0  0  0
   -5.3026   -4.7641  -25.9161 H   0  0  0  0  0  0  0  0  0  0  0  0
   -6.2244   -5.4649  -23.5356 C   0  0  0  0  0  0  0  0  0  0  0  0
   -6.6870   -5.0889  -22.1236 C   0  0  0  0  0  0  0  0  0  0  0  0
   -6.1484   -5.6778  -21.3678 H   0  0  0  0  0  0  0  0  0  0  0  0
   -7.7561   -5.2680  -21.9805 H   0  0  0  0  0  0  0  0  0  0  0  0
   -6.4207   -6.5297  -23.7108 H   0  0  0  0  0  0  0  0  0  0  0  0
   -6.8345   -4.8947  -24.2533 H   0  0  0  0  0  0  0  0  0  0  0  0
   -3.9333   -4.7497  -21.8527 H   0  0  0  0  0  0  0  0  0  0  0  0
   -3.3100   -3.6883  -23.1179 H   0  0  0  0  0  0  0  0  0  0  0  0
   -5.4157   -2.4333  -23.2029 H   0  0  0  0  0  0  0  0  0  0  0  0
   -4.7817   -2.4662  -21.5504 H   0  0  0  0  0  0  0  0  0  0  0  0
  1  2  2  0
  2  3  1  0
  3  4  1  0
  4  5  2  0
  5  6  1  0
  6  7  2  0
  7  8  1  0
  8  9  2  0
  9 10  1  0
 10 11  2  0
 11 12  1  0
 12 13  2  0
 12 14  1  0
 11 15  1  0
 10 16  1  0
  9 17  1  0
  7 18  1  0
  5 19  1  0
  3 20  1  0
  3 21  1  0
  2 22  1  0
 22 23  1  0
 23 24  1  0
 24 25  1  0
 25 26  1  0
 26 27  1  0
 27 28  1  0
 28 29  1  0
 28 30  1  0
 27 31  1  0
 27 32  1  0
 26 33  1  0
 26 34  1  0
 25 35  1  0
 35 36  1  0
 36 37  1  0
 36 38  1  0
 35 39  1  0
 35 40  1  0
 24 41  1  0
 24 42  1  0
 23 43  1  0
 23 44  1  0
 13  4  1  0
 36 22  1  0
 13  8  1  0
 28 25  1  0
M  END
>  <cnnaffinities>  (59) 
[4.44759, 4.63566, 4.63485, 4.63367, 4.93163, 5.19699, 5.19703, 5.1971, 5.19707, 4.60037, 4.60005, 4.60002, 4.60013, 4.69915, 4.69911, 4.69918, 4.5859]

>  <score>  (59) 
4.44759

>  <index>  (59) 
61

>  <Smiles>  (59) 
O=C(C(c1c(nc(c2c(c(c(c(c12)[H])[H])[H])[H])[H])[H])([H])[H])N1C(C(C2(C(C(C2([H])[H])([H])[H])([H])[H])C(C1([H])[H])([H])[H])([H])[H])([H])[H]

>  <h>  (59) 
<NA>

>  <Training>  (59) 
True

>  <Success>  (59) 
True

>  <enamine_searched>  (59) 
False

>  <enamine_id>  (59) 
nan

$$$$

     RDKit          3D

 44 47  0  0  0  0  0  0  0  0999 V2000
   -8.6136    0.7124  -21.2885 O   0  0  0  0  0  0  0  0  0  0  0  0
   -8.5680   -0.4355  -21.7014 C   0  0  0  0  0  0  0  0  0  0  0  0
   -7.4831   -1.4156  -21.2598 C   0  0  0  0  0  0  0  0  0  0  0  0
   -6.6243   -0.8275  -20.1907 C   0  0  0  0  0  0  0  0  0  0  0  0
   -6.9267   -1.0757  -18.8805 C   0  0  0  0  0  0  0  0  0  0  0  0
   -6.2561   -0.5886  -17.8089 N   0  0  0  0  0  0  0  0  0  0  0  0
   -5.2356    0.1941  -18.0656 C   0  0  0  0  0  0  0  0  0  0  0  0
   -4.8130    0.5543  -19.3747 C   0  0  0  0  0  0  0  0  0  0  0  0
   -3.6807    1.3726  -19.5947 C   0  0  0  0  0  0  0  0  0  0  0  0
   -3.3092    1.7185  -20.8645 C   0  0  0  0  0  0  0  0  0  0  0  0
   -4.0681    1.2686  -21.9657 C   0  0  0  0  0  0  0  0  0  0  0  0
   -5.1583    0.4583  -21.7821 C   0  0  0  0  0  0  0  0  0  0  0  0
   -5.5483    0.0601  -20.4763 C   0  0  0  0  0  0  0  0  0  0  0  0
   -5.7097    0.0950  -22.6445 H   0  0  0  0  0  0  0  0  0  0  0  0
   -3.7543    1.5372  -22.9705 H   0  0  0  0  0  0  0  0  0  0  0  0
   -2.4356    2.3400  -21.0307 H   0  0  0  0  0  0  0  0  0  0  0  0
   -3.1199    1.7203  -18.7318 H   0  0  0  0  0  0  0  0  0  0  0  0
   -4.6802    0.5726  -17.2093 H   0  0  0  0  0  0  0  0  0  0  0  0
   -7.7728   -1.7194  -18.6432 H   0  0  0  0  0  0  0  0  0  0  0  0
   -7.9884   -2.3097  -20.8650 H   0  0  0  0  0  0  0  0  0  0  0  0
   -6.8851   -1.7206  -22.1300 H   0  0  0  0  0  0  0  0  0  0  0  0
   -9.4989   -0.9213  -22.5713 N   0  0  0  0  0  0  0  0  0  0  0  0
   -9.5360   -2.2407  -23.1853 C   0  0  0  0  0  0  0  0  0  0  0  0
  -10.8198   -2.9663  -22.7675 C   0  0  0  0  0  0  0  0  0  0  0  0
  -12.0329   -2.0033  -22.7766 C   0  0  0  0  0  0  0  0  0  0  0  0
  -13.2917   -2.6684  -23.3011 C   0  0  0  0  0  0  0  0  0  0  0  0
  -14.6823   -2.1989  -22.9713 C   0  0  0  0  0  0  0  0  0  0  0  0
  -14.1668   -3.4924  -22.4096 C   0  0  0  0  0  0  0  0  0  0  0  0
  -13.9205   -3.4863  -21.3524 H   0  0  0  0  0  0  0  0  0  0  0  0
  -14.5282   -4.4439  -22.7808 H   0  0  0  0  0  0  0  0  0  0  0  0
  -14.8408   -1.3643  -22.2874 H   0  0  0  0  0  0  0  0  0  0  0  0
  -15.3683   -2.2165  -23.8117 H   0  0  0  0  0  0  0  0  0  0  0  0
  -13.2195   -3.0207  -24.3298 H   0  0  0  0  0  0  0  0  0  0  0  0
  -11.7265   -0.7182  -23.5648 C   0  0  0  0  0  0  0  0  0  0  0  0
  -10.4878    0.0301  -23.0598 C   0  0  0  0  0  0  0  0  0  0  0  0
  -10.0541    0.6130  -23.8870 H   0  0  0  0  0  0  0  0  0  0  0  0
  -10.7059    0.7411  -22.2529 H   0  0  0  0  0  0  0  0  0  0  0  0
  -12.5826   -0.0432  -23.4989 H   0  0  0  0  0  0  0  0  0  0  0  0
  -11.6030   -0.9426  -24.6358 H   0  0  0  0  0  0  0  0  0  0  0  0
  -12.2070   -1.7146  -21.7286 H   0  0  0  0  0  0  0  0  0  0  0  0
  -10.7041   -3.3805  -21.7589 H   0  0  0  0  0  0  0  0  0  0  0  0
  -10.9708   -3.8293  -23.4231 H   0  0  0  0  0  0  0  0  0  0  0  0
   -9.5344   -2.1102  -24.2774 H   0  0  0  0  0  0  0  0  0  0  0  0
   -8.6481   -2.8265  -22.9351 H   0  0  0  0  0  0  0  0  0  0  0  0
  1  2  2  0
  2  3  1  0
  3  4  1  0
  4  5  2  0
  5  6  1  0
  6  7  2  0
  7  8  1  0
  8  9  2  0
  9 10  1  0
 10 11  2  0
 11 12  1  0
 12 13  2  0
 12 14  1  0
 11 15  1  0
 10 16  1  0
  9 17  1  0
  7 18  1  0
  5 19  1  0
  3 20  1  0
  3 21  1  0
  2 22  1  0
 22 23  1  0
 23 24  1  0
 24 25  1  0
 25 26  1  0
 26 27  1  0
 27 28  1  0
 28 29  1  0
 28 30  1  0
 27 31  1  0
 27 32  1  0
 26 33  1  0
 25 34  1  0
 34 35  1  0
 35 36  1  0
 35 37  1  0
 34 38  1  0
 34 39  1  0
 25 40  1  0
 24 41  1  0
 24 42  1  0
 23 43  1  0
 23 44  1  0
 13  4  1  0
 35 22  1  0
 13  8  1  0
 28 26  1  0
M  END
>  <cnnaffinities>  (60) 
[4.89538, 4.94042, 5.10359]

>  <score>  (60) 
4.89538

>  <index>  (60) 
62

>  <Smiles>  (60) 
O=C(C(c1c(nc(c2c(c(c(c(c12)[H])[H])[H])[H])[H])[H])([H])[H])N1C(C(C(C2(C(C2([H])[H])([H])[H])[H])(C(C1([H])[H])([H])[H])[H])([H])[H])([H])[H]

>  <h>  (60) 
<NA>

>  <Training>  (60) 
True

>  <Success>  (60) 
True

>  <enamine_searched>  (60) 
False

>  <enamine_id>  (60) 
nan

$$$$

     RDKit          3D

 57 61  0  0  0  0  0  0  0  0999 V2000
   -7.3400    3.4283  -21.8554 C   0  0  0  0  0  0  0  0  0  0  0  0
   -8.1810    2.9569  -22.9405 N   0  0  0  0  0  0  0  0  0  0  0  0
   -7.6064    2.2549  -23.9454 C   0  0  0  0  0  0  0  0  0  0  0  0
   -6.3930    2.1356  -24.0508 O   0  0  0  0  0  0  0  0  0  0  0  0
   -8.5631    1.6333  -24.9744 C   0  0  0  0  0  0  0  0  0  0  0  0
   -9.3051    0.4912  -24.4740 N   0  0  0  0  0  0  0  0  0  0  0  0
   -8.6023   -0.7667  -24.2896 C   0  0  0  0  0  0  0  0  0  0  0  0
   -9.0123   -1.4771  -22.9696 C   0  0  2  0  0  0  0  0  0  0  0  0
   -8.4610   -0.6876  -21.7507 C   0  0  0  0  0  0  0  0  0  0  0  0
   -8.8699    0.3662  -21.3176 O   0  0  0  0  0  0  0  0  0  0  0  0
   -7.4053   -1.3855  -21.2069 N   0  0  0  0  0  0  0  0  0  0  0  0
   -6.6082   -0.8090  -20.1772 C   0  0  0  0  0  0  0  0  0  0  0  0
   -6.9079   -1.0472  -18.8620 C   0  0  0  0  0  0  0  0  0  0  0  0
   -6.2018   -0.5582  -17.8114 N   0  0  0  0  0  0  0  0  0  0  0  0
   -5.1683    0.2046  -18.0750 C   0  0  0  0  0  0  0  0  0  0  0  0
   -4.7364    0.5392  -19.3889 C   0  0  0  0  0  0  0  0  0  0  0  0
   -3.6083    1.3731  -19.6315 C   0  0  0  0  0  0  0  0  0  0  0  0
   -3.2308    1.6811  -20.9099 C   0  0  0  0  0  0  0  0  0  0  0  0
   -3.9710    1.1764  -22.0017 C   0  0  0  0  0  0  0  0  0  0  0  0
   -5.0595    0.3616  -21.7926 C   0  0  0  0  0  0  0  0  0  0  0  0
   -5.4808    0.0229  -20.4800 C   0  0  0  0  0  0  0  0  0  0  0  0
   -5.5845   -0.0599  -22.6453 H   0  0  0  0  0  0  0  0  0  0  0  0
   -3.6639    1.3905  -23.0191 H   0  0  0  0  0  0  0  0  0  0  0  0
   -2.3604    2.3042  -21.0944 H   0  0  0  0  0  0  0  0  0  0  0  0
   -3.0672    1.7677  -18.7752 H   0  0  0  0  0  0  0  0  0  0  0  0
   -4.6223    0.6104  -17.2229 H   0  0  0  0  0  0  0  0  0  0  0  0
   -7.7599   -1.6704  -18.6020 H   0  0  0  0  0  0  0  0  0  0  0  0
   -7.0767   -2.6153  -21.9027 C   0  0  0  0  0  0  0  0  0  0  0  0
   -8.3069   -2.8618  -22.8112 C   0  0  2  0  0  0  0  0  0  0  0  0
   -7.9362   -3.5870  -24.1071 C   0  0  0  0  0  0  0  0  0  0  0  0
   -7.4263   -4.8609  -23.7602 O   0  0  0  0  0  0  0  0  0  0  0  0
   -7.2018   -5.3291  -24.5756 H   0  0  0  0  0  0  0  0  0  0  0  0
   -7.1771   -3.0040  -24.6538 H   0  0  0  0  0  0  0  0  0  0  0  0
   -8.8206   -3.6821  -24.7570 H   0  0  0  0  0  0  0  0  0  0  0  0
   -8.9926   -3.5259  -22.2806 H   0  0  0  0  0  0  0  0  0  0  0  0
   -6.9096   -3.4284  -21.1869 H   0  0  0  0  0  0  0  0  0  0  0  0
   -6.1493   -2.5041  -22.4882 H   0  0  0  0  0  0  0  0  0  0  0  0
  -10.5338   -1.4945  -22.9042 C   0  0  0  0  0  0  0  0  0  0  0  0
  -11.1882   -2.3213  -21.9800 C   0  0  0  0  0  0  0  0  0  0  0  0
  -12.5659   -2.2738  -21.8689 C   0  0  0  0  0  0  0  0  0  0  0  0
  -13.3936   -3.1363  -20.6052 Cl  0  0  0  0  0  0  0  0  0  0  0  0
  -13.3340   -1.4583  -22.6974 C   0  0  0  0  0  0  0  0  0  0  0  0
  -12.6975   -0.5835  -23.5508 C   0  0  0  0  0  0  0  0  0  0  0  0
  -11.3043   -0.5660  -23.6201 C   0  0  0  0  0  0  0  0  0  0  0  0
  -10.6686    0.5552  -24.3840 C   0  0  0  0  0  0  0  0  0  0  0  0
  -11.3352    1.4716  -24.8432 O   0  0  0  0  0  0  0  0  0  0  0  0
  -13.2456    0.1495  -24.1355 H   0  0  0  0  0  0  0  0  0  0  0  0
  -14.4118   -1.4807  -22.6047 H   0  0  0  0  0  0  0  0  0  0  0  0
  -10.6263   -2.9614  -21.3091 H   0  0  0  0  0  0  0  0  0  0  0  0
   -7.5335   -0.5301  -24.2606 H   0  0  0  0  0  0  0  0  0  0  0  0
   -8.7986   -1.4418  -25.1382 H   0  0  0  0  0  0  0  0  0  0  0  0
   -7.9281    1.3455  -25.8198 H   0  0  0  0  0  0  0  0  0  0  0  0
   -9.3217    2.3419  -25.3209 H   0  0  0  0  0  0  0  0  0  0  0  0
   -9.1832    2.9044  -22.8105 H   0  0  0  0  0  0  0  0  0  0  0  0
   -6.6233    4.1794  -22.2135 H   0  0  0  0  0  0  0  0  0  0  0  0
   -7.9856    3.8921  -21.1072 H   0  0  0  0  0  0  0  0  0  0  0  0
   -6.7663    2.5901  -21.4215 H   0  0  0  0  0  0  0  0  0  0  0  0
  1  2  1  0
  2  3  1  0
  3  4  2  0
  3  5  1  0
  5  6  1  0
  6  7  1  0
  8  7  1  6
  8  9  1  0
  9 10  2  0
  9 11  1  0
 11 12  1  0
 12 13  2  0
 13 14  1  0
 14 15  2  0
 15 16  1  0
 16 17  2  0
 17 18  1  0
 18 19  2  0
 19 20  1  0
 20 21  2  0
 20 22  1  0
 19 23  1  0
 18 24  1  0
 17 25  1  0
 15 26  1  0
 13 27  1  0
 11 28  1  0
 28 29  1  0
 29 30  1  0
 30 31  1  0
 31 32  1  0
 30 33  1  0
 30 34  1  0
 29 35  1  1
 28 36  1  0
 28 37  1  0
  8 38  1  0
 38 39  2  0
 39 40  1  0
 40 41  1  0
 40 42  2  0
 42 43  1  0
 43 44  2  0
 44 45  1  0
 45 46  2  0
 43 47  1  0
 42 48  1  0
 39 49  1  0
  7 50  1  0
  7 51  1  0
  5 52  1  0
  5 53  1  0
  2 54  1  0
  1 55  1  0
  1 56  1  0
  1 57  1  0
 45  6  1  0
 29  8  1  0
 44 38  1  0
 21 12  1  0
 21 16  1  0
M  END
>  <cnnaffinities>  (61) 
[5.96376]

>  <score>  (61) 
5.96376

>  <index>  (61) 
63

>  <Smiles>  (61) 
C(N(C(=O)C(N1C([C@@]2(C(=O)N(c3c(nc(c4c(c(c(c(c34)[H])[H])[H])[H])[H])[H])C([C@@]2(C(O[H])([H])[H])[H])([H])[H])c2c(c(Cl)c(c(c2C1=O)[H])[H])[H])([H])[H])([H])[H])[H])([H])([H])[H]

>  <h>  (61) 
<NA>

>  <Training>  (61) 
True

>  <Success>  (61) 
True

>  <enamine_searched>  (61) 
False

>  <enamine_id>  (61) 
nan

$$$$

     RDKit          3D

 55 60  0  0  0  0  0  0  0  0999 V2000
  -10.1919   -2.9678  -22.0494 C   0  0  0  0  0  0  0  0  0  0  0  0
   -9.1370   -2.0222  -22.6378 C   0  0  1  0  0  0  0  0  0  0  0  0
   -8.6816   -0.9804  -21.5889 C   0  0  0  0  0  0  0  0  0  0  0  0
   -7.3743   -1.4266  -21.1850 N   0  0  0  0  0  0  0  0  0  0  0  0
   -6.6043   -0.8193  -20.1663 C   0  0  0  0  0  0  0  0  0  0  0  0
   -6.9254   -1.0519  -18.8559 C   0  0  0  0  0  0  0  0  0  0  0  0
   -6.2381   -0.5584  -17.7981 N   0  0  0  0  0  0  0  0  0  0  0  0
   -5.2039    0.2058  -18.0600 C   0  0  0  0  0  0  0  0  0  0  0  0
   -4.7751    0.5455  -19.3756 C   0  0  0  0  0  0  0  0  0  0  0  0
   -3.6513    1.3832  -19.5997 C   0  0  0  0  0  0  0  0  0  0  0  0
   -3.2900    1.7320  -20.8709 C   0  0  0  0  0  0  0  0  0  0  0  0
   -4.0352    1.2613  -21.9769 C   0  0  0  0  0  0  0  0  0  0  0  0
   -5.1093    0.4252  -21.7936 C   0  0  0  0  0  0  0  0  0  0  0  0
   -5.4985    0.0350  -20.4768 C   0  0  0  0  0  0  0  0  0  0  0  0
   -5.6545    0.0468  -22.6602 H   0  0  0  0  0  0  0  0  0  0  0  0
   -3.7393    1.5467  -22.9818 H   0  0  0  0  0  0  0  0  0  0  0  0
   -2.4329    2.3765  -21.0426 H   0  0  0  0  0  0  0  0  0  0  0  0
   -3.0976    1.7450  -18.7373 H   0  0  0  0  0  0  0  0  0  0  0  0
   -4.6485    0.6065  -17.2108 H   0  0  0  0  0  0  0  0  0  0  0  0
   -7.7737   -1.6944  -18.6209 H   0  0  0  0  0  0  0  0  0  0  0  0
   -6.8464   -2.4156  -21.9723 C   0  0  0  0  0  0  0  0  0  0  0  0
   -5.7759   -2.9459  -21.7626 O   0  0  0  0  0  0  0  0  0  0  0  0
   -7.8246   -2.7146  -23.1248 C   0  0  1  0  0  0  0  0  0  0  0  0
   -7.9500   -4.2467  -23.3049 C   0  0  0  0  0  0  0  0  0  0  0  0
   -6.7359   -4.8288  -23.8440 N   0  0  0  0  0  0  0  0  0  0  0  0
   -6.2529   -6.1038  -23.3278 C   0  0  0  0  0  0  0  0  0  0  0  0
   -5.0695   -6.0232  -22.4042 C   0  0  0  0  0  0  0  0  0  0  0  0
   -5.1470   -6.0872  -20.8181 N   0  0  0  0  0  0  0  0  0  0  0  0
   -5.1467   -6.0870  -20.8179 C   0  0  0  0  0  0  0  0  0  0  0  0
   -2.9083   -5.7290  -22.5331 N   0  0  0  0  0  0  0  0  0  0  0  0
   -4.0144   -5.8133  -23.1768 N   0  0  0  0  0  0  0  0  0  0  0  0
   -2.1990   -5.4870  -23.2328 H   0  0  0  0  0  0  0  0  0  0  0  0
   -6.3050   -6.2296  -20.8536 H   0  0  0  0  0  0  0  0  0  0  0  0
   -5.8735   -6.6315  -24.2212 H   0  0  0  0  0  0  0  0  0  0  0  0
   -7.1198   -6.6532  -22.9280 H   0  0  0  0  0  0  0  0  0  0  0  0
   -6.1985   -4.3268  -25.0031 C   0  0  0  0  0  0  0  0  0  0  0  0
   -5.4473   -4.9735  -25.7208 O   0  0  0  0  0  0  0  0  0  0  0  0
   -6.5425   -2.8989  -25.3135 C   0  0  0  0  0  0  0  0  0  0  0  0
   -6.0644   -2.3676  -26.5136 C   0  0  0  0  0  0  0  0  0  0  0  0
   -6.2925   -1.0454  -26.8399 C   0  0  0  0  0  0  0  0  0  0  0  0
   -7.0032   -0.2675  -25.9336 C   0  0  0  0  0  0  0  0  0  0  0  0
   -7.2223    1.0262  -26.2323 F   0  0  0  0  0  0  0  0  0  0  0  0
   -7.4990   -0.7693  -24.7451 C   0  0  0  0  0  0  0  0  0  0  0  0
   -7.2944   -2.1197  -24.4275 C   0  0  0  0  0  0  0  0  0  0  0  0
   -8.0563   -0.0956  -24.1007 H   0  0  0  0  0  0  0  0  0  0  0  0
   -5.9292   -0.5974  -27.7583 H   0  0  0  0  0  0  0  0  0  0  0  0
   -5.5025   -3.0187  -27.1746 H   0  0  0  0  0  0  0  0  0  0  0  0
   -8.1658   -4.7061  -22.3406 H   0  0  0  0  0  0  0  0  0  0  0  0
   -8.8024   -4.4423  -23.9778 H   0  0  0  0  0  0  0  0  0  0  0  0
   -9.3489   -0.9525  -20.7308 H   0  0  0  0  0  0  0  0  0  0  0  0
   -8.6398    0.0380  -21.9958 H   0  0  0  0  0  0  0  0  0  0  0  0
   -9.6109   -1.5196  -23.4858 H   0  0  0  0  0  0  0  0  0  0  0  0
   -9.7972   -3.5369  -21.2004 H   0  0  0  0  0  0  0  0  0  0  0  0
  -11.0608   -2.4005  -21.6967 H   0  0  0  0  0  0  0  0  0  0  0  0
  -10.5505   -3.6765  -22.8020 H   0  0  0  0  0  0  0  0  0  0  0  0
  1  2  1  0
  2  3  1  0
  3  4  1  0
  4  5  1  0
  5  6  2  0
  6  7  1  0
  7  8  2  0
  8  9  1  0
  9 10  2  0
 10 11  1  0
 11 12  2  0
 12 13  1  0
 13 14  2  0
 13 15  1  0
 12 16  1  0
 11 17  1  0
 10 18  1  0
  8 19  1  0
  6 20  1  0
  4 21  1  0
 21 22  2  0
 21 23  1  0
 23 24  1  6
 24 25  1  0
 25 26  1  0
 26 27  1  0
 27 28  1  0
 28 29  2  0
 29 30  1  0
 30 31  1  0
 30 32  1  0
 29 33  1  0
 26 34  1  0
 26 35  1  0
 25 36  1  0
 36 37  2  0
 36 38  1  0
 38 39  2  0
 39 40  1  0
 40 41  2  0
 41 42  1  0
 41 43  1  0
 43 44  2  0
 43 45  1  0
 40 46  1  0
 39 47  1  0
 24 48  1  0
 24 49  1  0
  3 50  1  0
  3 51  1  0
  2 52  1  6
  1 53  1  0
  1 54  1  0
  1 55  1  0
 23  2  1  0
 31 27  2  0
 44 38  1  0
 14  5  1  0
 44 23  1  0
 14  9  1  0
M  END
>  <cnnaffinities>  (62) 
[5.91461]

>  <score>  (62) 
5.91461

>  <index>  (62) 
64

>  <Smiles>  (62) 
C([C@]1(C(N(c2c(nc(c3c(c(c(c(c23)[H])[H])[H])[H])[H])[H])C(=O)[C@]21C(N(C(c1nc(n(n1)[H])[H])([H])[H])C(=O)c1c(c(c(F)c(c21)[H])[H])[H])([H])[H])([H])[H])[H])([H])([H])[H]

>  <h>  (62) 
<NA>

>  <Training>  (62) 
True

>  <Success>  (62) 
True

>  <enamine_searched>  (62) 
False

>  <enamine_id>  (62) 
nan

$$$$

     RDKit          3D

 55 60  0  0  0  0  0  0  0  0999 V2000
   -7.8774   -3.5915  -24.1081 C   0  0  0  0  0  0  0  0  0  0  0  0
   -8.2838   -2.8472  -22.8285 C   0  0  1  0  0  0  0  0  0  0  0  0
   -7.0802   -2.6103  -21.8891 C   0  0  0  0  0  0  0  0  0  0  0  0
   -7.4067   -1.3793  -21.1977 N   0  0  0  0  0  0  0  0  0  0  0  0
   -6.6039   -0.8069  -20.1711 C   0  0  0  0  0  0  0  0  0  0  0  0
   -6.9050   -1.0485  -18.8576 C   0  0  0  0  0  0  0  0  0  0  0  0
   -6.1985   -0.5601  -17.8080 N   0  0  0  0  0  0  0  0  0  0  0  0
   -5.1694    0.2066  -18.0735 C   0  0  0  0  0  0  0  0  0  0  0  0
   -4.7389    0.5437  -19.3887 C   0  0  0  0  0  0  0  0  0  0  0  0
   -3.6106    1.3779  -19.6291 C   0  0  0  0  0  0  0  0  0  0  0  0
   -3.2261    1.6753  -20.9055 C   0  0  0  0  0  0  0  0  0  0  0  0
   -3.9544    1.1545  -21.9959 C   0  0  0  0  0  0  0  0  0  0  0  0
   -5.0384    0.3310  -21.7901 C   0  0  0  0  0  0  0  0  0  0  0  0
   -5.4727    0.0171  -20.4775 C   0  0  0  0  0  0  0  0  0  0  0  0
   -5.5661   -0.0762  -22.6483 H   0  0  0  0  0  0  0  0  0  0  0  0
   -3.6401    1.3724  -23.0115 H   0  0  0  0  0  0  0  0  0  0  0  0
   -2.3589    2.3036  -21.0930 H   0  0  0  0  0  0  0  0  0  0  0  0
   -3.0699    1.7708  -18.7715 H   0  0  0  0  0  0  0  0  0  0  0  0
   -4.6210    0.6123  -17.2218 H   0  0  0  0  0  0  0  0  0  0  0  0
   -7.7591   -1.6706  -18.6004 H   0  0  0  0  0  0  0  0  0  0  0  0
   -8.4306   -0.6592  -21.7701 C   0  0  0  0  0  0  0  0  0  0  0  0
   -8.8232    0.4049  -21.3421 O   0  0  0  0  0  0  0  0  0  0  0  0
   -8.9698   -1.4482  -22.9994 C   0  0  1  0  0  0  0  0  0  0  0  0
   -8.5225   -0.7739  -24.3242 C   0  0  0  0  0  0  0  0  0  0  0  0
   -9.2095    0.4747  -24.5801 N   0  0  0  0  0  0  0  0  0  0  0  0
   -8.4414    1.6662  -24.9110 C   0  0  0  0  0  0  0  0  0  0  0  0
   -8.1379    2.5225  -23.7151 C   0  0  0  0  0  0  0  0  0  0  0  0
   -8.9552    3.3786  -23.0694 C   0  0  0  0  0  0  0  0  0  0  0  0
   -8.2700    3.9274  -22.0339 O   0  0  0  0  0  0  0  0  0  0  0  0
   -7.0634    3.3403  -22.0781 C   0  0  0  0  0  0  0  0  0  0  0  0
   -6.9082    2.5152  -23.0631 N   0  0  0  0  0  0  0  0  0  0  0  0
   -6.3948    3.5857  -21.2607 H   0  0  0  0  0  0  0  0  0  0  0  0
   -9.9880    3.6678  -23.1766 H   0  0  0  0  0  0  0  0  0  0  0  0
   -9.0358    2.2274  -25.6383 H   0  0  0  0  0  0  0  0  0  0  0  0
   -7.4986    1.3587  -25.3746 H   0  0  0  0  0  0  0  0  0  0  0  0
  -10.5633    0.6018  -24.4346 C   0  0  0  0  0  0  0  0  0  0  0  0
  -11.1834    1.5789  -24.8422 O   0  0  0  0  0  0  0  0  0  0  0  0
  -11.2374   -0.5107  -23.6879 C   0  0  0  0  0  0  0  0  0  0  0  0
  -12.6323   -0.5102  -23.6365 C   0  0  0  0  0  0  0  0  0  0  0  0
  -13.3013   -1.3997  -22.8210 C   0  0  0  0  0  0  0  0  0  0  0  0
  -12.5493   -2.2626  -22.0328 C   0  0  0  0  0  0  0  0  0  0  0  0
  -13.1941   -3.0788  -21.1840 F   0  0  0  0  0  0  0  0  0  0  0  0
  -11.1720   -2.2973  -22.0791 C   0  0  0  0  0  0  0  0  0  0  0  0
  -10.4901   -1.4513  -22.9622 C   0  0  0  0  0  0  0  0  0  0  0  0
  -10.6565   -2.9612  -21.3944 H   0  0  0  0  0  0  0  0  0  0  0  0
  -14.3811   -1.4201  -22.7471 H   0  0  0  0  0  0  0  0  0  0  0  0
  -13.1573    0.2294  -24.2315 H   0  0  0  0  0  0  0  0  0  0  0  0
   -8.6994   -1.4721  -25.1573 H   0  0  0  0  0  0  0  0  0  0  0  0
   -7.4522   -0.5506  -24.2537 H   0  0  0  0  0  0  0  0  0  0  0  0
   -6.1429   -2.5107  -22.4594 H   0  0  0  0  0  0  0  0  0  0  0  0
   -6.9387   -3.4270  -21.1711 H   0  0  0  0  0  0  0  0  0  0  0  0
   -9.0051   -3.4700  -22.2950 H   0  0  0  0  0  0  0  0  0  0  0  0
   -8.7231   -3.7365  -24.7901 H   0  0  0  0  0  0  0  0  0  0  0  0
   -7.0986   -3.0461  -24.6556 H   0  0  0  0  0  0  0  0  0  0  0  0
   -7.4712   -4.5810  -23.8695 H   0  0  0  0  0  0  0  0  0  0  0  0
  1  2  1  0
  2  3  1  0
  3  4  1  0
  4  5  1  0
  5  6  2  0
  6  7  1  0
  7  8  2  0
  8  9  1  0
  9 10  2  0
 10 11  1  0
 11 12  2  0
 12 13  1  0
 13 14  2  0
 13 15  1  0
 12 16  1  0
 11 17  1  0
 10 18  1  0
  8 19  1  0
  6 20  1  0
  4 21  1  0
 21 22  2  0
 21 23  1  0
 23 24  1  6
 24 25  1  0
 25 26  1  0
 26 27  1  0
 27 28  2  0
 28 29  1  0
 29 30  1  0
 30 31  2  0
 30 32  1  0
 28 33  1  0
 26 34  1  0
 26 35  1  0
 25 36  1  0
 36 37  2  0
 36 38  1  0
 38 39  2  0
 39 40  1  0
 40 41  2  0
 41 42  1  0
 41 43  1  0
 43 44  2  0
 43 45  1  0
 40 46  1  0
 39 47  1  0
 24 48  1  0
 24 49  1  0
  3 50  1  0
  3 51  1  0
  2 52  1  1
  1 53  1  0
  1 54  1  0
  1 55  1  0
 23  2  1  0
 31 27  1  0
 44 38  1  0
 14  5  1  0
 44 23  1  0
 14  9  1  0
M  END
>  <cnnaffinities>  (63) 
[6.15752]

>  <score>  (63) 
6.15752

>  <index>  (63) 
65

>  <Smiles>  (63) 
C([C@]1(C(N(c2c(nc(c3c(c(c(c(c23)[H])[H])[H])[H])[H])[H])C(=O)[C@]21C(N(C(c1c(oc(n1)[H])[H])([H])[H])C(=O)c1c(c(c(F)c(c21)[H])[H])[H])([H])[H])([H])[H])[H])([H])([H])[H]

>  <h>  (63) 
<NA>

>  <Training>  (63) 
True

>  <Success>  (63) 
True

>  <enamine_searched>  (63) 
False

>  <enamine_id>  (63) 
nan

$$$$

     RDKit          3D

 44 47  0  0  0  0  0  0  0  0999 V2000
   -9.7837    1.4411  -24.4025 C   0  0  0  0  0  0  0  0  0  0  0  0
  -10.9242    0.5066  -24.0123 C   0  0  0  0  0  0  0  0  0  0  0  0
  -10.7713   -0.1493  -22.6339 C   0  0  1  0  0  0  0  0  0  0  0  0
  -11.9878   -0.9537  -22.3049 C   0  0  0  0  0  0  0  0  0  0  0  0
  -13.3015   -0.4188  -22.1583 C   0  0  0  0  0  0  0  0  0  0  0  0
  -14.1982   -1.3616  -21.7752 C   0  0  0  0  0  0  0  0  0  0  0  0
  -13.4873   -2.9204  -21.6708 S   0  0  0  0  0  0  0  0  0  0  0  0
  -11.9327   -2.2985  -22.0935 C   0  0  0  0  0  0  0  0  0  0  0  0
  -10.6992   -3.1420  -22.2533 C   0  0  0  0  0  0  0  0  0  0  0  0
   -9.6528   -2.3189  -23.0102 C   0  0  0  0  0  0  0  0  0  0  0  0
   -9.5632   -0.9587  -22.4823 N   0  0  0  0  0  0  0  0  0  0  0  0
   -8.5472   -0.4279  -21.7237 C   0  0  0  0  0  0  0  0  0  0  0  0
   -8.5154    0.7470  -21.4013 O   0  0  0  0  0  0  0  0  0  0  0  0
   -7.4626   -1.4039  -21.2628 C   0  0  0  0  0  0  0  0  0  0  0  0
   -6.6074   -0.8153  -20.1824 C   0  0  0  0  0  0  0  0  0  0  0  0
   -6.9060   -1.0650  -18.8704 C   0  0  0  0  0  0  0  0  0  0  0  0
   -6.2287   -0.5784  -17.7999 N   0  0  0  0  0  0  0  0  0  0  0  0
   -5.2073    0.2050  -18.0588 C   0  0  0  0  0  0  0  0  0  0  0  0
   -4.7874    0.5599  -19.3694 C   0  0  0  0  0  0  0  0  0  0  0  0
   -3.6550    1.3773  -19.5963 C   0  0  0  0  0  0  0  0  0  0  0  0
   -3.2804    1.7107  -20.8701 C   0  0  0  0  0  0  0  0  0  0  0  0
   -4.0321    1.2425  -21.9703 C   0  0  0  0  0  0  0  0  0  0  0  0
   -5.1228    0.4335  -21.7790 C   0  0  0  0  0  0  0  0  0  0  0  0
   -5.5168    0.0546  -20.4690 C   0  0  0  0  0  0  0  0  0  0  0  0
   -5.6793    0.0676  -22.6371 H   0  0  0  0  0  0  0  0  0  0  0  0
   -3.7232    1.5047  -22.9762 H   0  0  0  0  0  0  0  0  0  0  0  0
   -2.4106    2.3321  -21.0444 H   0  0  0  0  0  0  0  0  0  0  0  0
   -3.0929    1.7341  -18.7399 H   0  0  0  0  0  0  0  0  0  0  0  0
   -4.6463    0.5936  -17.2099 H   0  0  0  0  0  0  0  0  0  0  0  0
   -7.7522   -1.7064  -18.6226 H   0  0  0  0  0  0  0  0  0  0  0  0
   -7.9830   -2.2905  -20.8736 H   0  0  0  0  0  0  0  0  0  0  0  0
   -6.8714   -1.7227  -22.1343 H   0  0  0  0  0  0  0  0  0  0  0  0
   -8.6711   -2.8025  -23.0513 H   0  0  0  0  0  0  0  0  0  0  0  0
   -9.9930   -2.2452  -24.0491 H   0  0  0  0  0  0  0  0  0  0  0  0
  -10.3184   -3.4703  -21.2785 H   0  0  0  0  0  0  0  0  0  0  0  0
  -10.9181   -4.0655  -22.8011 H   0  0  0  0  0  0  0  0  0  0  0  0
  -15.2302   -1.2083  -21.5164 H   0  0  0  0  0  0  0  0  0  0  0  0
  -13.5770    0.6153  -22.3325 H   0  0  0  0  0  0  0  0  0  0  0  0
  -10.6584    0.6737  -21.9206 H   0  0  0  0  0  0  0  0  0  0  0  0
  -11.8614    1.0744  -23.9656 H   0  0  0  0  0  0  0  0  0  0  0  0
  -11.0857   -0.2722  -24.7656 H   0  0  0  0  0  0  0  0  0  0  0  0
   -8.8495    0.8935  -24.5869 H   0  0  0  0  0  0  0  0  0  0  0  0
  -10.0420    1.9906  -25.3182 H   0  0  0  0  0  0  0  0  0  0  0  0
   -9.6134    2.1687  -23.5976 H   0  0  0  0  0  0  0  0  0  0  0  0
  1  2  1  0
  2  3  1  0
  3  4  1  0
  4  5  1  0
  5  6  2  0
  6  7  1  0
  7  8  1  0
  8  9  1  0
  9 10  1  0
 10 11  1  0
 11 12  1  0
 12 13  2  0
 12 14  1  0
 14 15  1  0
 15 16  2  0
 16 17  1  0
 17 18  2  0
 18 19  1  0
 19 20  2  0
 20 21  1  0
 21 22  2  0
 22 23  1  0
 23 24  2  0
 23 25  1  0
 22 26  1  0
 21 27  1  0
 20 28  1  0
 18 29  1  0
 16 30  1  0
 14 31  1  0
 14 32  1  0
 10 33  1  0
 10 34  1  0
  9 35  1  0
  9 36  1  0
  6 37  1  0
  5 38  1  0
  3 39  1  1
  2 40  1  0
  2 41  1  0
  1 42  1  0
  1 43  1  0
  1 44  1  0
 11  3  1  0
 24 15  1  0
  8  4  2  0
 24 19  1  0
M  END
>  <cnnaffinities>  (64) 
[4.95716]

>  <score>  (64) 
4.95716

>  <index>  (64) 
66

>  <Smiles>  (64) 
C(C([C@]1(c2c(c(sc2C(C(N1C(=O)C(c1c(nc(c2c(c(c(c(c12)[H])[H])[H])[H])[H])[H])([H])[H])([H])[H])([H])[H])[H])[H])[H])([H])[H])([H])([H])[H]

>  <h>  (64) 
<NA>

>  <Training>  (64) 
True

>  <Success>  (64) 
True

>  <enamine_searched>  (64) 
False

>  <enamine_id>  (64) 
nan

$$$$

     RDKit          3D

 58 63  0  0  0  0  0  0  0  0999 V2000
   -5.6123    4.1689  -22.2279 C   0  0  0  0  0  0  0  0  0  0  0  0
   -6.6874    3.5600  -23.0717 C   0  0  0  0  0  0  0  0  0  0  0  0
   -6.6077    2.4343  -23.9437 C   0  0  0  0  0  0  0  0  0  0  0  0
   -7.8754    2.2921  -24.4115 C   0  0  0  0  0  0  0  0  0  0  0  0
   -8.5992    1.3899  -25.3618 C   0  0  0  0  0  0  0  0  0  0  0  0
   -9.3448    0.3288  -24.7011 N   0  0  0  0  0  0  0  0  0  0  0  0
   -8.7466   -0.9749  -24.4794 C   0  0  0  0  0  0  0  0  0  0  0  0
   -8.9746   -1.4606  -23.0242 C   0  0  2  0  0  0  0  0  0  0  0  0
   -8.2457   -0.5382  -22.0122 C   0  0  0  0  0  0  0  0  0  0  0  0
   -8.4169    0.6493  -21.8495 O   0  0  0  0  0  0  0  0  0  0  0  0
   -7.3726   -1.3107  -21.2702 N   0  0  0  0  0  0  0  0  0  0  0  0
   -6.6083   -0.7692  -20.2126 C   0  0  0  0  0  0  0  0  0  0  0  0
   -6.8954   -1.0763  -18.9074 C   0  0  0  0  0  0  0  0  0  0  0  0
   -6.2215   -0.5953  -17.8365 N   0  0  0  0  0  0  0  0  0  0  0  0
   -5.2024    0.1973  -18.0755 C   0  0  0  0  0  0  0  0  0  0  0  0
   -4.7716    0.5707  -19.3801 C   0  0  0  0  0  0  0  0  0  0  0  0
   -3.6361    1.3981  -19.5875 C   0  0  0  0  0  0  0  0  0  0  0  0
   -3.2355    1.7177  -20.8583 C   0  0  0  0  0  0  0  0  0  0  0  0
   -3.9638    1.2487  -21.9698 C   0  0  0  0  0  0  0  0  0  0  0  0
   -5.0624    0.4423  -21.7946 C   0  0  0  0  0  0  0  0  0  0  0  0
   -5.4982    0.0885  -20.4895 C   0  0  0  0  0  0  0  0  0  0  0  0
   -5.5938    0.0435  -22.6507 H   0  0  0  0  0  0  0  0  0  0  0  0
   -3.6303    1.5109  -22.9718 H   0  0  0  0  0  0  0  0  0  0  0  0
   -2.3597    2.3415  -21.0136 H   0  0  0  0  0  0  0  0  0  0  0  0
   -3.0956    1.7587  -18.7193 H   0  0  0  0  0  0  0  0  0  0  0  0
   -4.6604    0.5841  -17.2134 H   0  0  0  0  0  0  0  0  0  0  0  0
   -7.7327   -1.7323  -18.6761 H   0  0  0  0  0  0  0  0  0  0  0  0
   -7.6619   -2.7265  -21.3736 C   0  0  0  0  0  0  0  0  0  0  0  0
   -8.3570   -2.8696  -22.7437 C   0  0  2  0  0  0  0  0  0  0  0  0
   -7.4300   -3.4396  -23.8242 C   0  0  0  0  0  0  0  0  0  0  0  0
   -7.0884   -4.4353  -23.5208 H   0  0  0  0  0  0  0  0  0  0  0  0
   -6.5511   -2.8121  -24.0103 H   0  0  0  0  0  0  0  0  0  0  0  0
   -7.9752   -3.5574  -24.7661 H   0  0  0  0  0  0  0  0  0  0  0  0
   -9.1688   -3.5959  -22.6695 H   0  0  0  0  0  0  0  0  0  0  0  0
   -8.3413   -3.0404  -20.5673 H   0  0  0  0  0  0  0  0  0  0  0  0
   -6.7350   -3.3050  -21.2970 H   0  0  0  0  0  0  0  0  0  0  0  0
  -10.4811   -1.3935  -22.7754 C   0  0  0  0  0  0  0  0  0  0  0  0
  -11.1411   -2.3248  -21.9618 C   0  0  0  0  0  0  0  0  0  0  0  0
  -12.5055   -2.2342  -21.7955 C   0  0  0  0  0  0  0  0  0  0  0  0
  -13.1241   -3.1720  -21.0580 F   0  0  0  0  0  0  0  0  0  0  0  0
  -13.2660   -1.2053  -22.3365 C   0  0  0  0  0  0  0  0  0  0  0  0
  -12.6076   -0.2476  -23.0878 C   0  0  0  0  0  0  0  0  0  0  0  0
  -11.2404   -0.3633  -23.3486 C   0  0  0  0  0  0  0  0  0  0  0  0
  -10.6192    0.6179  -24.2977 C   0  0  0  0  0  0  0  0  0  0  0  0
  -11.2360    1.5923  -24.7069 O   0  0  0  0  0  0  0  0  0  0  0  0
  -13.1409    0.5953  -23.5151 H   0  0  0  0  0  0  0  0  0  0  0  0
  -14.3383   -1.1869  -22.1813 H   0  0  0  0  0  0  0  0  0  0  0  0
  -10.6354   -3.1485  -21.4729 H   0  0  0  0  0  0  0  0  0  0  0  0
   -7.6802   -0.8924  -24.6931 H   0  0  0  0  0  0  0  0  0  0  0  0
   -9.1822   -1.7293  -25.1575 H   0  0  0  0  0  0  0  0  0  0  0  0
   -9.3224    2.0427  -25.8491 H   0  0  0  0  0  0  0  0  0  0  0  0
   -7.9203    0.9459  -26.0949 H   0  0  0  0  0  0  0  0  0  0  0  0
   -8.6511    3.2453  -23.8785 O   0  0  0  0  0  0  0  0  0  0  0  0
   -7.9084    4.0422  -23.0500 N   0  0  0  0  0  0  0  0  0  0  0  0
   -5.7501    1.8097  -24.1212 H   0  0  0  0  0  0  0  0  0  0  0  0
   -5.5234    3.6226  -21.2798 H   0  0  0  0  0  0  0  0  0  0  0  0
   -4.6423    4.0879  -22.7275 H   0  0  0  0  0  0  0  0  0  0  0  0
   -5.8313    5.2199  -22.0243 H   0  0  0  0  0  0  0  0  0  0  0  0
  1  2  1  0
  2  3  1  0
  3  4  2  0
  4  5  1  0
  5  6  1  0
  6  7  1  0
  8  7  1  6
  8  9  1  0
  9 10  2  0
  9 11  1  0
 11 12  1  0
 12 13  2  0
 13 14  1  0
 14 15  2  0
 15 16  1  0
 16 17  2  0
 17 18  1  0
 18 19  2  0
 19 20  1  0
 20 21  2  0
 20 22  1  0
 19 23  1  0
 18 24  1  0
 17 25  1  0
 15 26  1  0
 13 27  1  0
 11 28  1  0
 28 29  1  0
 29 30  1  0
 30 31  1  0
 30 32  1  0
 30 33  1  0
 29 34  1  1
 28 35  1  0
 28 36  1  0
  8 37  1  0
 37 38  2  0
 38 39  1  0
 39 40  1  0
 39 41  2  0
 41 42  1  0
 42 43  2  0
 43 44  1  0
 44 45  2  0
 42 46  1  0
 41 47  1  0
 38 48  1  0
  7 49  1  0
  7 50  1  0
  5 51  1  0
  5 52  1  0
  4 53  1  0
 53 54  1  0
  3 55  1  0
  1 56  1  0
  1 57  1  0
  1 58  1  0
 54  2  2  0
 44  6  1  0
 29  8  1  0
 43 37  1  0
 21 12  1  0
 21 16  1  0
M  END
>  <cnnaffinities>  (65) 
[6.36761]

>  <score>  (65) 
6.36761

>  <index>  (65) 
67

>  <Smiles>  (65) 
C(c1c(c(C(N2C([C@@]3(C(=O)N(c4c(nc(c5c(c(c(c(c45)[H])[H])[H])[H])[H])[H])C([C@@]3(C([H])([H])[H])[H])([H])[H])c3c(c(F)c(c(c3C2=O)[H])[H])[H])([H])[H])([H])[H])on1)[H])([H])([H])[H]

>  <h>  (65) 
<NA>

>  <Training>  (65) 
True

>  <Success>  (65) 
True

>  <enamine_searched>  (65) 
False

>  <enamine_id>  (65) 
nan

$$$$

     RDKit          3D

 65 70  0  0  0  0  0  0  0  0999 V2000
   -5.6757   -3.2291  -21.2692 O   0  0  0  0  0  0  0  0  0  0  0  0
   -6.6168   -2.7386  -21.8723 C   0  0  0  0  0  0  0  0  0  0  0  0
   -7.3349   -1.5084  -21.3065 C   0  0  0  0  0  0  0  0  0  0  0  0
   -6.5783   -0.8289  -20.2010 C   0  0  0  0  0  0  0  0  0  0  0  0
   -6.8840   -1.0780  -18.8922 C   0  0  0  0  0  0  0  0  0  0  0  0
   -6.2184   -0.5840  -17.8125 N   0  0  0  0  0  0  0  0  0  0  0  0
   -5.1973    0.2011  -18.0614 C   0  0  0  0  0  0  0  0  0  0  0  0
   -4.7563    0.5470  -19.3663 C   0  0  0  0  0  0  0  0  0  0  0  0
   -3.6250    1.3762  -19.5882 C   0  0  0  0  0  0  0  0  0  0  0  0
   -3.2419    1.7001  -20.8617 C   0  0  0  0  0  0  0  0  0  0  0  0
   -3.9786    1.2256  -21.9667 C   0  0  0  0  0  0  0  0  0  0  0  0
   -5.0599    0.3983  -21.7800 C   0  0  0  0  0  0  0  0  0  0  0  0
   -5.4752    0.0316  -20.4733 C   0  0  0  0  0  0  0  0  0  0  0  0
   -5.5916    0.0039  -22.6406 H   0  0  0  0  0  0  0  0  0  0  0  0
   -3.6752    1.4903  -22.9773 H   0  0  0  0  0  0  0  0  0  0  0  0
   -2.3688    2.3259  -21.0324 H   0  0  0  0  0  0  0  0  0  0  0  0
   -3.0731    1.7387  -18.7237 H   0  0  0  0  0  0  0  0  0  0  0  0
   -4.6567    0.6045  -17.2018 H   0  0  0  0  0  0  0  0  0  0  0  0
   -7.7315   -1.7226  -18.6526 H   0  0  0  0  0  0  0  0  0  0  0  0
   -8.2967   -1.8721  -20.9187 H   0  0  0  0  0  0  0  0  0  0  0  0
   -7.5727   -0.8113  -22.1131 H   0  0  0  0  0  0  0  0  0  0  0  0
   -7.1376   -3.2777  -23.0433 N   0  0  0  0  0  0  0  0  0  0  0  0
   -7.8214   -2.4639  -24.0521 C   0  0  0  0  0  0  0  0  0  0  0  0
   -9.2882   -2.1412  -23.7870 C   0  0  0  0  0  0  0  0  0  0  0  0
   -9.8757   -1.0269  -24.3942 C   0  0  0  0  0  0  0  0  0  0  0  0
  -11.2040   -0.7011  -24.1361 C   0  0  0  0  0  0  0  0  0  0  0  0
  -11.9631   -1.4541  -23.2491 C   0  0  0  0  0  0  0  0  0  0  0  0
  -11.3622   -2.5294  -22.6122 C   0  0  0  0  0  0  0  0  0  0  0  0
  -12.2502   -3.3582  -21.3701 Cl  0  0  0  0  0  0  0  0  0  0  0  0
  -10.0567   -2.9080  -22.9088 C   0  0  0  0  0  0  0  0  0  0  0  0
   -9.6336   -3.7808  -22.4272 H   0  0  0  0  0  0  0  0  0  0  0  0
  -12.9995   -1.2095  -23.0374 H   0  0  0  0  0  0  0  0  0  0  0  0
  -11.6440    0.1757  -24.6042 H   0  0  0  0  0  0  0  0  0  0  0  0
   -9.2886   -0.3844  -25.0528 H   0  0  0  0  0  0  0  0  0  0  0  0
   -7.7251   -2.9678  -25.0175 H   0  0  0  0  0  0  0  0  0  0  0  0
   -7.2673   -1.5245  -24.1806 H   0  0  0  0  0  0  0  0  0  0  0  0
   -6.7950   -4.6662  -23.3654 C   0  0  2  0  0  0  0  0  0  0  0  0
   -7.7041   -5.3380  -24.4191 C   0  0  0  0  0  0  0  0  0  0  0  0
   -7.4910   -6.8541  -24.1927 C   0  0  0  0  0  0  0  0  0  0  0  0
   -6.4688   -6.8672  -23.0618 C   0  0  2  0  0  0  0  0  0  0  0  0
   -6.8892   -5.6786  -22.2105 C   0  0  0  0  0  0  0  0  0  0  0  0
   -6.2153   -5.4431  -21.3847 H   0  0  0  0  0  0  0  0  0  0  0  0
   -7.9146   -5.7598  -21.8321 H   0  0  0  0  0  0  0  0  0  0  0  0
   -5.1297   -6.4032  -23.6891 N   0  0  2  0  0  4  0  0  0  0  0  0
   -3.9316   -6.7548  -22.8514 C   0  0  0  0  0  0  0  0  0  0  0  0
   -3.1015   -7.9412  -23.3531 C   0  0  0  0  0  0  0  0  0  0  0  0
   -3.8085   -9.0515  -24.1331 C   0  0  0  0  0  0  0  0  0  0  0  0
   -3.4904   -8.4214  -25.3825 O   0  0  0  0  0  0  0  0  0  0  0  0
   -2.4351   -7.6951  -24.7178 C   0  0  0  0  0  0  0  0  0  0  0  0
   -2.4153   -6.6505  -25.0509 H   0  0  0  0  0  0  0  0  0  0  0  0
   -1.4381   -8.1705  -24.8263 H   0  0  0  0  0  0  0  0  0  0  0  0
   -3.2422   -9.9867  -24.0036 H   0  0  0  0  0  0  0  0  0  0  0  0
   -4.8866   -9.2174  -24.0265 H   0  0  0  0  0  0  0  0  0  0  0  0
   -2.4654   -8.2823  -22.5356 H   0  0  0  0  0  0  0  0  0  0  0  0
   -3.2727   -5.8770  -22.8240 H   0  0  0  0  0  0  0  0  0  0  0  0
   -4.2744   -6.9236  -21.8246 H   0  0  0  0  0  0  0  0  0  0  0  0
   -5.3511   -4.8929  -23.8632 C   0  0  0  0  0  0  0  0  0  0  0  0
   -4.6363   -4.3528  -23.2444 H   0  0  0  0  0  0  0  0  0  0  0  0
   -5.1998   -4.6270  -24.9133 H   0  0  0  0  0  0  0  0  0  0  0  0
   -5.0098   -6.8426  -24.6153 H   0  0  0  0  0  0  0  0  0  0  0  0
   -6.3240   -7.8148  -22.5459 H   0  0  0  0  0  0  0  0  0  0  0  0
   -8.4196   -7.3508  -23.8950 H   0  0  0  0  0  0  0  0  0  0  0  0
   -7.0857   -7.3733  -25.0685 H   0  0  0  0  0  0  0  0  0  0  0  0
   -7.4297   -5.0384  -25.4343 H   0  0  0  0  0  0  0  0  0  0  0  0
   -8.7412   -5.0473  -24.2358 H   0  0  0  0  0  0  0  0  0  0  0  0
  1  2  2  0
  2  3  1  0
  3  4  1  0
  4  5  2  0
  5  6  1  0
  6  7  2  0
  7  8  1  0
  8  9  2  0
  9 10  1  0
 10 11  2  0
 11 12  1  0
 12 13  2  0
 12 14  1  0
 11 15  1  0
 10 16  1  0
  9 17  1  0
  7 18  1  0
  5 19  1  0
  3 20  1  0
  3 21  1  0
  2 22  1  0
 22 23  1  0
 23 24  1  0
 24 25  2  0
 25 26  1  0
 26 27  2  0
 27 28  1  0
 28 29  1  0
 28 30  2  0
 30 31  1  0
 27 32  1  0
 26 33  1  0
 25 34  1  0
 23 35  1  0
 23 36  1  0
 37 22  1  1
 37 38  1  0
 38 39  1  0
 39 40  1  0
 40 41  1  0
 41 42  1  0
 41 43  1  0
 40 44  1  0
 44 45  1  0
 45 46  1  0
 46 47  1  0
 47 48  1  0
 48 49  1  0
 49 50  1  0
 49 51  1  0
 47 52  1  0
 47 53  1  0
 46 54  1  0
 45 55  1  0
 45 56  1  0
 44 57  1  0
 57 58  1  0
 57 59  1  0
 44 60  1  6
 40 61  1  1
 39 62  1  0
 39 63  1  0
 38 64  1  0
 38 65  1  0
 13  4  1  0
 30 24  1  0
 41 37  1  0
 49 46  1  0
 13  8  1  0
 57 37  1  0
M  CHG  1  44   1
M  END
>  <cnnaffinities>  (66) 
[5.59331]

>  <score>  (66) 
5.59331

>  <index>  (66) 
68

>  <Smiles>  (66) 
O=C(C(c1c(nc(c2c(c(c(c(c12)[H])[H])[H])[H])[H])[H])([H])[H])N(C(c1c(c(c(c(Cl)c1[H])[H])[H])[H])([H])[H])[C@]12C(C([C@](C1([H])[H])([N@+](C(C1(C(OC1([H])[H])([H])[H])[H])([H])[H])(C2([H])[H])[H])[H])([H])[H])([H])[H]

>  <h>  (66) 
<NA>

>  <Training>  (66) 
True

>  <Success>  (66) 
True

>  <enamine_searched>  (66) 
False

>  <enamine_id>  (66) 
nan

$$$$

     RDKit          3D

 63 67  0  0  0  0  0  0  0  0999 V2000
  -12.2248    6.4673  -23.8477 C   0  0  0  0  0  0  0  0  0  0  0  0
  -11.4366    5.4029  -23.7919 C   0  0  0  0  0  0  0  0  0  0  0  0
  -10.5925    5.0549  -24.9667 C   0  0  0  0  0  0  0  0  0  0  0  0
  -10.4428    5.8097  -25.9136 O   0  0  0  0  0  0  0  0  0  0  0  0
   -9.8880    3.8649  -24.8918 N   0  0  0  0  0  0  0  0  0  0  0  0
   -8.5704    3.8682  -25.5037 C   0  0  0  0  0  0  0  0  0  0  0  0
   -7.6068    3.1948  -24.5499 C   0  0  0  0  0  0  0  0  0  0  0  0
   -8.0408    1.7509  -24.3660 C   0  0  0  0  0  0  0  0  0  0  0  0
   -9.5206    1.6220  -24.0569 C   0  0  0  0  0  0  0  0  0  0  0  0
  -10.4110    2.6542  -24.4028 C   0  0  0  0  0  0  0  0  0  0  0  0
  -11.7968    2.4618  -24.3002 C   0  0  0  0  0  0  0  0  0  0  0  0
  -12.2977    1.2803  -23.7832 C   0  0  0  0  0  0  0  0  0  0  0  0
  -11.4220    0.2822  -23.3543 C   0  0  0  0  0  0  0  0  0  0  0  0
  -10.0475    0.4646  -23.4847 C   0  0  0  0  0  0  0  0  0  0  0  0
   -9.1254   -0.6615  -23.0164 N   0  0  1  0  0  4  0  0  0  0  0  0
   -8.3026   -1.3507  -24.2112 C   0  0  0  0  0  0  0  0  0  0  0  0
   -8.3561   -2.8616  -24.1544 C   0  0  0  0  0  0  0  0  0  0  0  0
   -7.1952   -3.6414  -24.1120 C   0  0  0  0  0  0  0  0  0  0  0  0
   -7.2767   -5.0278  -24.1554 C   0  0  0  0  0  0  0  0  0  0  0  0
   -8.5062   -5.6584  -24.2679 C   0  0  0  0  0  0  0  0  0  0  0  0
   -9.6551   -4.8850  -24.3123 C   0  0  0  0  0  0  0  0  0  0  0  0
  -11.1868   -5.6894  -24.4960 Cl  0  0  0  0  0  0  0  0  0  0  0  0
   -9.5962   -3.5053  -24.2112 C   0  0  0  0  0  0  0  0  0  0  0  0
  -10.5197   -2.9359  -24.1918 H   0  0  0  0  0  0  0  0  0  0  0  0
   -8.5916   -6.7348  -24.3221 H   0  0  0  0  0  0  0  0  0  0  0  0
   -6.3761   -5.6264  -24.0851 H   0  0  0  0  0  0  0  0  0  0  0  0
   -6.2147   -3.1718  -24.0492 H   0  0  0  0  0  0  0  0  0  0  0  0
   -7.2724   -0.9782  -24.2160 H   0  0  0  0  0  0  0  0  0  0  0  0
   -8.7864   -0.9760  -25.1164 H   0  0  0  0  0  0  0  0  0  0  0  0
   -8.3790   -0.3171  -21.7506 C   0  0  0  0  0  0  0  0  0  0  0  0
   -8.5577    0.7314  -21.1946 O   0  0  0  0  0  0  0  0  0  0  0  0
   -7.4416   -1.4051  -21.2297 C   0  0  0  0  0  0  0  0  0  0  0  0
   -6.5622   -0.8507  -20.1459 C   0  0  0  0  0  0  0  0  0  0  0  0
   -6.8653   -1.0630  -18.8290 C   0  0  0  0  0  0  0  0  0  0  0  0
   -6.1797   -0.5585  -17.7694 N   0  0  0  0  0  0  0  0  0  0  0  0
   -5.1611    0.2199  -18.0452 C   0  0  0  0  0  0  0  0  0  0  0  0
   -4.7425    0.5459  -19.3625 C   0  0  0  0  0  0  0  0  0  0  0  0
   -3.6279    1.3867  -19.6055 C   0  0  0  0  0  0  0  0  0  0  0  0
   -3.2563    1.7021  -20.8834 C   0  0  0  0  0  0  0  0  0  0  0  0
   -3.9978    1.2018  -21.9782 C   0  0  0  0  0  0  0  0  0  0  0  0
   -5.0720    0.3695  -21.7698 C   0  0  0  0  0  0  0  0  0  0  0  0
   -5.4704    0.0103  -20.4531 C   0  0  0  0  0  0  0  0  0  0  0  0
   -5.6131   -0.0278  -22.6273 H   0  0  0  0  0  0  0  0  0  0  0  0
   -3.6867    1.4407  -22.9924 H   0  0  0  0  0  0  0  0  0  0  0  0
   -2.3871    2.3276  -21.0692 H   0  0  0  0  0  0  0  0  0  0  0  0
   -3.0758    1.7672  -18.7486 H   0  0  0  0  0  0  0  0  0  0  0  0
   -4.6066    0.6398  -17.2026 H   0  0  0  0  0  0  0  0  0  0  0  0
   -7.7223   -1.6846  -18.5660 H   0  0  0  0  0  0  0  0  0  0  0  0
   -8.0572   -2.2287  -20.8375 H   0  0  0  0  0  0  0  0  0  0  0  0
   -6.8645   -1.7981  -22.0723 H   0  0  0  0  0  0  0  0  0  0  0  0
   -9.7753   -1.4277  -22.7452 H   0  0  0  0  0  0  0  0  0  0  0  0
  -11.8100   -0.6371  -22.9221 H   0  0  0  0  0  0  0  0  0  0  0  0
  -13.3737    1.1449  -23.6912 H   0  0  0  0  0  0  0  0  0  0  0  0
  -12.4753    3.2444  -24.6220 H   0  0  0  0  0  0  0  0  0  0  0  0
   -7.8241    1.2054  -25.2972 H   0  0  0  0  0  0  0  0  0  0  0  0
   -7.4457    1.2849  -23.5753 H   0  0  0  0  0  0  0  0  0  0  0  0
   -6.5786    3.2468  -24.9237 H   0  0  0  0  0  0  0  0  0  0  0  0
   -7.6404    3.7152  -23.5866 H   0  0  0  0  0  0  0  0  0  0  0  0
   -8.6164    3.3576  -26.4732 H   0  0  0  0  0  0  0  0  0  0  0  0
   -8.3183    4.9118  -25.6877 H   0  0  0  0  0  0  0  0  0  0  0  0
  -11.3477    4.7767  -22.9084 H   0  0  0  0  0  0  0  0  0  0  0  0
  -12.2154    7.0756  -24.7469 H   0  0  0  0  0  0  0  0  0  0  0  0
  -12.8713    6.7466  -23.0217 H   0  0  0  0  0  0  0  0  0  0  0  0
  1  2  2  0
  2  3  1  0
  3  4  2  0
  3  5  1  0
  5  6  1  0
  6  7  1  0
  7  8  1  0
  8  9  1  0
  9 10  2  0
 10 11  1  0
 11 12  2  0
 12 13  1  0
 13 14  2  0
 14 15  1  0
 15 16  1  0
 16 17  1  0
 17 18  2  0
 18 19  1  0
 19 20  2  0
 20 21  1  0
 21 22  1  0
 21 23  2  0
 23 24  1  0
 20 25  1  0
 19 26  1  0
 18 27  1  0
 16 28  1  0
 16 29  1  0
 15 30  1  0
 30 31  2  0
 30 32  1  0
 32 33  1  0
 33 34  2  0
 34 35  1  0
 35 36  2  0
 36 37  1  0
 37 38  2  0
 38 39  1  0
 39 40  2  0
 40 41  1  0
 41 42  2  0
 41 43  1  0
 40 44  1  0
 39 45  1  0
 38 46  1  0
 36 47  1  0
 34 48  1  0
 32 49  1  0
 32 50  1  0
 15 51  1  1
 13 52  1  0
 12 53  1  0
 11 54  1  0
  8 55  1  0
  8 56  1  0
  7 57  1  0
  7 58  1  0
  6 59  1  0
  6 60  1  0
  2 61  1  0
  1 62  1  0
  1 63  1  0
 10  5  1  0
 23 17  1  0
 42 33  1  0
 14  9  1  0
 42 37  1  0
M  CHG  1  15   1
M  END
>  <cnnaffinities>  (67) 
[6.05209]

>  <score>  (67) 
6.05209

>  <index>  (67) 
69

>  <Smiles>  (67) 
C(=C(C(=O)N1C(C(C(c2c1c(c(c(c2[N@@+](C(c1c(c(c(c(Cl)c1[H])[H])[H])[H])([H])[H])(C(=O)C(c1c(nc(c2c(c(c(c(c12)[H])[H])[H])[H])[H])[H])([H])[H])[H])[H])[H])[H])([H])[H])([H])[H])([H])[H])[H])([H])[H]

>  <h>  (67) 
<NA>

>  <Training>  (67) 
True

>  <Success>  (67) 
True

>  <enamine_searched>  (67) 
False

>  <enamine_id>  (67) 
nan

$$$$

     RDKit          3D

 52 54  0  0  0  0  0  0  0  0999 V2000
   -4.2287    0.5619  -25.9214 C   0  0  0  0  0  0  0  0  0  0  0  0
   -4.9554    0.0871  -27.1835 C   0  0  0  0  0  0  0  0  0  0  0  0
   -4.9062   -1.4264  -27.3850 C   0  0  0  0  0  0  0  0  0  0  0  0
   -3.8992   -1.8046  -27.5992 H   0  0  0  0  0  0  0  0  0  0  0  0
   -5.5925   -1.6884  -28.1976 H   0  0  0  0  0  0  0  0  0  0  0  0
   -5.2937   -1.9127  -26.4871 H   0  0  0  0  0  0  0  0  0  0  0  0
   -6.4194    0.5705  -27.2898 C   0  0  0  0  0  0  0  0  0  0  0  0
   -7.5081   -0.1414  -26.4864 C   0  0  0  0  0  0  0  0  0  0  0  0
   -7.8009   -0.2309  -26.6955 C   0  0  0  0  0  0  0  0  0  0  0  0
   -9.0505   -0.2030  -26.7972 H   0  0  0  0  0  0  0  0  0  0  0  0
   -8.2250   -0.8797  -27.6387 H   0  0  0  0  0  0  0  0  0  0  0  0
   -7.8693    1.1315  -25.6086 H   0  0  0  0  0  0  0  0  0  0  0  0
   -7.3676   -1.1496  -25.3377 C   0  0  0  0  0  0  0  0  0  0  0  0
   -8.2547   -1.1425  -24.0827 C   0  0  0  0  0  0  0  0  0  0  0  0
   -8.0723   -0.0077  -23.1625 N   0  0  0  0  0  0  0  0  0  0  0  0
   -8.2009   -0.2171  -21.7899 C   0  0  0  0  0  0  0  0  0  0  0  0
   -8.8599    0.5193  -21.0810 O   0  0  0  0  0  0  0  0  0  0  0  0
   -7.4082   -1.3753  -21.1803 C   0  0  0  0  0  0  0  0  0  0  0  0
   -6.5477   -0.8508  -20.0687 C   0  0  0  0  0  0  0  0  0  0  0  0
   -6.8273   -1.1228  -18.7586 C   0  0  0  0  0  0  0  0  0  0  0  0
   -6.1371   -0.6349  -17.6963 N   0  0  0  0  0  0  0  0  0  0  0  0
   -5.1413    0.1766  -17.9565 C   0  0  0  0  0  0  0  0  0  0  0  0
   -4.7459    0.5582  -19.2683 C   0  0  0  0  0  0  0  0  0  0  0  0
   -3.6731    1.4562  -19.5055 C   0  0  0  0  0  0  0  0  0  0  0  0
   -3.3355    1.8181  -20.7823 C   0  0  0  0  0  0  0  0  0  0  0  0
   -4.0545    1.2935  -21.8772 C   0  0  0  0  0  0  0  0  0  0  0  0
   -5.0878    0.4155  -21.6737 C   0  0  0  0  0  0  0  0  0  0  0  0
   -5.4685    0.0315  -20.3586 C   0  0  0  0  0  0  0  0  0  0  0  0
   -5.6126    0.0073  -22.5288 H   0  0  0  0  0  0  0  0  0  0  0  0
   -3.7826    1.5710  -22.8934 H   0  0  0  0  0  0  0  0  0  0  0  0
   -2.5171    2.5092  -20.9583 H   0  0  0  0  0  0  0  0  0  0  0  0
   -3.1334    1.8569  -18.6517 H   0  0  0  0  0  0  0  0  0  0  0  0
   -4.5955    0.5786  -17.1022 H   0  0  0  0  0  0  0  0  0  0  0  0
   -7.6577   -1.7803  -18.5022 H   0  0  0  0  0  0  0  0  0  0  0  0
   -6.7975   -1.8557  -21.9490 H   0  0  0  0  0  0  0  0  0  0  0  0
   -8.1150   -2.1147  -20.7834 H   0  0  0  0  0  0  0  0  0  0  0  0
   -8.5814    1.2978  -23.6094 C   0  0  0  0  0  0  0  0  0  0  0  0
   -7.7441    1.8620  -24.7401 C   0  0  0  0  0  0  0  0  0  0  0  0
   -6.6793    1.8499  -24.4608 H   0  0  0  0  0  0  0  0  0  0  0  0
   -8.0189    2.8940  -24.9914 H   0  0  0  0  0  0  0  0  0  0  0  0
   -8.5620    1.9481  -22.7244 H   0  0  0  0  0  0  0  0  0  0  0  0
   -9.6419    1.1949  -23.9109 H   0  0  0  0  0  0  0  0  0  0  0  0
   -7.9926   -2.0447  -23.5290 H   0  0  0  0  0  0  0  0  0  0  0  0
   -9.3255   -1.2310  -24.3566 H   0  0  0  0  0  0  0  0  0  0  0  0
   -7.4460   -2.1472  -25.7587 H   0  0  0  0  0  0  0  0  0  0  0  0
   -6.3377   -1.0580  -24.9816 H   0  0  0  0  0  0  0  0  0  0  0  0
   -6.4483    1.6215  -27.0069 H   0  0  0  0  0  0  0  0  0  0  0  0
   -6.6661    0.5067  -28.3485 H   0  0  0  0  0  0  0  0  0  0  0  0
   -4.4641    0.5703  -28.0370 H   0  0  0  0  0  0  0  0  0  0  0  0
   -4.4314    1.6244  -25.7433 H   0  0  0  0  0  0  0  0  0  0  0  0
   -3.1423    0.4406  -26.0173 H   0  0  0  0  0  0  0  0  0  0  0  0
   -4.5425    0.0180  -25.0214 H   0  0  0  0  0  0  0  0  0  0  0  0
  1  2  1  0
  2  3  1  0
  3  4  1  0
  3  5  1  0
  3  6  1  0
  2  7  1  0
  7  8  1  0
  8  9  1  0
  9 10  1  0
  9 11  1  0
  9 12  1  0
  8 13  1  0
 13 14  1  0
 14 15  1  0
 15 16  1  0
 16 17  2  0
 16 18  1  0
 18 19  1  0
 19 20  2  0
 20 21  1  0
 21 22  2  0
 22 23  1  0
 23 24  2  0
 24 25  1  0
 25 26  2  0
 26 27  1  0
 27 28  2  0
 27 29  1  0
 26 30  1  0
 25 31  1  0
 24 32  1  0
 22 33  1  0
 20 34  1  0
 18 35  1  0
 18 36  1  0
 15 37  1  0
 37 38  1  0
 38 39  1  0
 38 40  1  0
 37 41  1  0
 37 42  1  0
 14 43  1  0
 14 44  1  0
 13 45  1  0
 13 46  1  0
  7 47  1  0
  7 48  1  0
  2 49  1  0
  1 50  1  0
  1 51  1  0
  1 52  1  0
 38  8  1  0
 28 19  1  0
 28 23  1  0
M  END
>  <cnnaffinities>  (68) 
[4.6008]

>  <score>  (68) 
4.6008

>  <index>  (68) 
70

>  <Smiles>  (68) 
C(C(C([H])([H])[H])(C(C1(C([H])([H])[H])C(C(N(C(=O)C(c2c(nc(c3c(c(c(c(c23)[H])[H])[H])[H])[H])[H])([H])[H])C(C1([H])[H])([H])[H])([H])[H])([H])[H])([H])[H])[H])([H])([H])[H]

>  <h>  (68) 
<NA>

>  <Training>  (68) 
True

>  <Success>  (68) 
True

>  <enamine_searched>  (68) 
False

>  <enamine_id>  (68) 
nan

$$$$

     RDKit          3D

 50 54  0  0  0  0  0  0  0  0999 V2000
  -10.5098   -2.5336  -22.6362 C   0  0  0  0  0  0  0  0  0  0  0  0
   -9.0977   -1.9667  -22.6541 C   0  0  1  0  0  0  0  0  0  0  0  0
   -8.7520   -1.3774  -21.2829 C   0  0  0  0  0  0  0  0  0  0  0  0
   -7.3050   -1.4174  -21.2601 N   0  0  0  0  0  0  0  0  0  0  0  0
   -6.5660   -0.8378  -20.2123 C   0  0  0  0  0  0  0  0  0  0  0  0
   -6.9201   -1.0654  -18.9081 C   0  0  0  0  0  0  0  0  0  0  0  0
   -6.2543   -0.5750  -17.8375 N   0  0  0  0  0  0  0  0  0  0  0  0
   -5.2142    0.1905  -18.0685 C   0  0  0  0  0  0  0  0  0  0  0  0
   -4.7679    0.5408  -19.3744 C   0  0  0  0  0  0  0  0  0  0  0  0
   -3.6435    1.3852  -19.5816 C   0  0  0  0  0  0  0  0  0  0  0  0
   -3.2827    1.7560  -20.8475 C   0  0  0  0  0  0  0  0  0  0  0  0
   -4.0265    1.3073  -21.9646 C   0  0  0  0  0  0  0  0  0  0  0  0
   -5.0974    0.4645  -21.7932 C   0  0  0  0  0  0  0  0  0  0  0  0
   -5.4739    0.0398  -20.4885 C   0  0  0  0  0  0  0  0  0  0  0  0
   -5.6478    0.0860  -22.6516 H   0  0  0  0  0  0  0  0  0  0  0  0
   -3.7340    1.6081  -22.9658 H   0  0  0  0  0  0  0  0  0  0  0  0
   -2.4284    2.4098  -21.0089 H   0  0  0  0  0  0  0  0  0  0  0  0
   -3.0963    1.7434  -18.7121 H   0  0  0  0  0  0  0  0  0  0  0  0
   -4.6740    0.5863  -17.2057 H   0  0  0  0  0  0  0  0  0  0  0  0
   -7.7659   -1.7099  -18.6714 H   0  0  0  0  0  0  0  0  0  0  0  0
   -6.7871   -2.3666  -22.1237 C   0  0  0  0  0  0  0  0  0  0  0  0
   -5.6263   -2.7287  -22.1528 O   0  0  0  0  0  0  0  0  0  0  0  0
   -7.9170   -2.9496  -22.9845 C   0  0  1  0  0  0  0  0  0  0  0  0
   -8.1390   -4.3863  -22.4325 C   0  0  0  0  0  0  0  0  0  0  0  0
   -8.9466   -5.2171  -23.2935 N   0  0  0  0  0  0  0  0  0  0  0  0
   -9.7614   -6.2647  -22.7284 C   0  0  0  0  0  0  0  0  0  0  0  0
   -9.3260   -7.6033  -23.1687 C   0  0  0  0  0  0  0  0  0  0  0  0
   -8.9945   -8.6470  -23.5352 N   0  0  0  0  0  0  0  0  0  0  0  0
   -9.6766   -6.1850  -21.6437 H   0  0  0  0  0  0  0  0  0  0  0  0
  -10.8048   -6.1203  -23.0264 H   0  0  0  0  0  0  0  0  0  0  0  0
   -8.9103   -5.1504  -24.6506 C   0  0  0  0  0  0  0  0  0  0  0  0
   -9.5920   -5.9012  -25.3390 O   0  0  0  0  0  0  0  0  0  0  0  0
   -8.0207   -4.1104  -25.2351 C   0  0  0  0  0  0  0  0  0  0  0  0
   -7.7442   -4.2249  -26.5960 C   0  0  0  0  0  0  0  0  0  0  0  0
   -6.9809   -3.2745  -27.2358 C   0  0  0  0  0  0  0  0  0  0  0  0
   -6.5146   -2.2082  -26.4775 C   0  0  0  0  0  0  0  0  0  0  0  0
   -5.7810   -1.2713  -27.0994 F   0  0  0  0  0  0  0  0  0  0  0  0
   -6.7604   -2.0715  -25.1222 C   0  0  0  0  0  0  0  0  0  0  0  0
   -7.5444   -3.0383  -24.4644 C   0  0  0  0  0  0  0  0  0  0  0  0
   -6.3136   -1.2216  -24.6106 H   0  0  0  0  0  0  0  0  0  0  0  0
   -6.7703   -3.3459  -28.2964 H   0  0  0  0  0  0  0  0  0  0  0  0
   -8.1445   -5.0780  -27.1369 H   0  0  0  0  0  0  0  0  0  0  0  0
   -7.1566   -4.8357  -22.2409 H   0  0  0  0  0  0  0  0  0  0  0  0
   -8.6499   -4.3236  -21.4687 H   0  0  0  0  0  0  0  0  0  0  0  0
   -9.1920   -1.9824  -20.4771 H   0  0  0  0  0  0  0  0  0  0  0  0
   -9.1244   -0.3577  -21.1505 H   0  0  0  0  0  0  0  0  0  0  0  0
   -9.0252   -1.1588  -23.3921 H   0  0  0  0  0  0  0  0  0  0  0  0
  -10.6198   -3.2448  -21.8120 H   0  0  0  0  0  0  0  0  0  0  0  0
  -11.2455   -1.7386  -22.4757 H   0  0  0  0  0  0  0  0  0  0  0  0
  -10.7594   -3.0583  -23.5583 H   0  0  0  0  0  0  0  0  0  0  0  0
  1  2  1  0
  2  3  1  0
  3  4  1  0
  4  5  1  0
  5  6  2  0
  6  7  1  0
  7  8  2  0
  8  9  1  0
  9 10  2  0
 10 11  1  0
 11 12  2  0
 12 13  1  0
 13 14  2  0
 13 15  1  0
 12 16  1  0
 11 17  1  0
 10 18  1  0
  8 19  1  0
  6 20  1  0
  4 21  1  0
 21 22  2  0
 21 23  1  0
 23 24  1  1
 24 25  1  0
 25 26  1  0
 26 27  1  0
 27 28  3  0
 26 29  1  0
 26 30  1  0
 25 31  1  0
 31 32  2  0
 31 33  1  0
 33 34  2  0
 34 35  1  0
 35 36  2  0
 36 37  1  0
 36 38  1  0
 38 39  2  0
 38 40  1  0
 35 41  1  0
 34 42  1  0
 24 43  1  0
 24 44  1  0
  3 45  1  0
  3 46  1  0
  2 47  1  6
  1 48  1  0
  1 49  1  0
  1 50  1  0
 23  2  1  0
 39 33  1  0
 14  5  1  0
 39 23  1  0
 14  9  1  0
M  END
>  <cnnaffinities>  (69) 
[5.80707, 5.44133]

>  <score>  (69) 
5.80707

>  <index>  (69) 
71

>  <Smiles>  (69) 
C([C@]1(C(N(c2c(nc(c3c(c(c(c(c23)[H])[H])[H])[H])[H])[H])C(=O)[C@]21C(N(C(C#N)([H])[H])C(=O)c1c(c(c(F)c(c21)[H])[H])[H])([H])[H])([H])[H])[H])([H])([H])[H]

>  <h>  (69) 
<NA>

>  <Training>  (69) 
True

>  <Success>  (69) 
True

>  <enamine_searched>  (69) 
False

>  <enamine_id>  (69) 
nan

$$$$

     RDKit          3D

 41 44  0  0  0  0  0  0  0  0999 V2000
   -8.6832    0.7156  -21.2782 O   0  0  0  0  0  0  0  0  0  0  0  0
   -8.6460   -0.4292  -21.7033 C   0  0  0  0  0  0  0  0  0  0  0  0
   -7.5186   -1.3818  -21.2871 C   0  0  0  0  0  0  0  0  0  0  0  0
   -6.6581   -0.8083  -20.1958 C   0  0  0  0  0  0  0  0  0  0  0  0
   -6.9437   -1.0763  -18.8872 C   0  0  0  0  0  0  0  0  0  0  0  0
   -6.2645   -0.6002  -17.8103 N   0  0  0  0  0  0  0  0  0  0  0  0
   -5.2428    0.1864  -18.0593 C   0  0  0  0  0  0  0  0  0  0  0  0
   -4.8228    0.5552  -19.3654 C   0  0  0  0  0  0  0  0  0  0  0  0
   -3.6893    1.3773  -19.5816 C   0  0  0  0  0  0  0  0  0  0  0  0
   -3.3210    1.7288  -20.8533 C   0  0  0  0  0  0  0  0  0  0  0  0
   -4.0828    1.2845  -21.9555 C   0  0  0  0  0  0  0  0  0  0  0  0
   -5.1769    0.4794  -21.7727 C   0  0  0  0  0  0  0  0  0  0  0  0
   -5.5694    0.0744  -20.4695 C   0  0  0  0  0  0  0  0  0  0  0  0
   -5.7399    0.1349  -22.6353 H   0  0  0  0  0  0  0  0  0  0  0  0
   -3.7788    1.5706  -22.9590 H   0  0  0  0  0  0  0  0  0  0  0  0
   -2.4498    2.3527  -21.0164 H   0  0  0  0  0  0  0  0  0  0  0  0
   -3.1221    1.7185  -18.7195 H   0  0  0  0  0  0  0  0  0  0  0  0
   -4.6887    0.5625  -17.1986 H   0  0  0  0  0  0  0  0  0  0  0  0
   -7.7814   -1.7322  -18.6454 H   0  0  0  0  0  0  0  0  0  0  0  0
   -7.9689   -2.3229  -20.9377 H   0  0  0  0  0  0  0  0  0  0  0  0
   -6.9085   -1.6298  -22.1643 H   0  0  0  0  0  0  0  0  0  0  0  0
   -9.6145   -0.9308  -22.5381 N   0  0  0  0  0  0  0  0  0  0  0  0
   -9.5726   -2.2413  -23.1997 C   0  0  0  0  0  0  0  0  0  0  0  0
  -10.3117   -3.3367  -22.4163 C   0  0  0  0  0  0  0  0  0  0  0  0
  -11.5428   -2.7597  -21.6905 C   0  0  0  0  0  0  0  0  0  0  0  0
  -12.4304   -1.8255  -22.4908 C   0  0  0  0  0  0  0  0  0  0  0  0
  -14.1398   -2.0880  -22.6645 S   0  0  0  0  0  0  0  0  0  0  0  0
  -14.3539   -0.5659  -23.4425 C   0  0  0  0  0  0  0  0  0  0  0  0
  -13.1810    0.1091  -23.5586 C   0  0  0  0  0  0  0  0  0  0  0  0
  -12.0622   -0.6108  -23.0067 C   0  0  0  0  0  0  0  0  0  0  0  0
  -10.6728   -0.0057  -22.9319 C   0  0  0  0  0  0  0  0  0  0  0  0
  -10.4058    0.4599  -23.8959 H   0  0  0  0  0  0  0  0  0  0  0  0
  -10.6815    0.8137  -22.2027 H   0  0  0  0  0  0  0  0  0  0  0  0
  -13.1407    1.0971  -24.0137 H   0  0  0  0  0  0  0  0  0  0  0  0
  -15.3387   -0.1956  -23.6932 H   0  0  0  0  0  0  0  0  0  0  0  0
  -12.1388   -3.5411  -21.2100 H   0  0  0  0  0  0  0  0  0  0  0  0
  -11.1244   -2.1310  -20.8957 H   0  0  0  0  0  0  0  0  0  0  0  0
   -9.6564   -3.7887  -21.6611 H   0  0  0  0  0  0  0  0  0  0  0  0
  -10.5697   -4.1552  -23.1015 H   0  0  0  0  0  0  0  0  0  0  0  0
  -10.1030   -2.1313  -24.1533 H   0  0  0  0  0  0  0  0  0  0  0  0
   -8.5389   -2.5447  -23.4195 H   0  0  0  0  0  0  0  0  0  0  0  0
  1  2  2  0
  2  3  1  0
  3  4  1  0
  4  5  2  0
  5  6  1  0
  6  7  2  0
  7  8  1  0
  8  9  2  0
  9 10  1  0
 10 11  2  0
 11 12  1  0
 12 13  2  0
 12 14  1  0
 11 15  1  0
 10 16  1  0
  9 17  1  0
  7 18  1  0
  5 19  1  0
  3 20  1  0
  3 21  1  0
  2 22  1  0
 22 23  1  0
 23 24  1  0
 24 25  1  0
 25 26  1  0
 26 27  1  0
 27 28  1  0
 28 29  2  0
 29 30  1  0
 30 31  1  0
 31 32  1  0
 31 33  1  0
 29 34  1  0
 28 35  1  0
 25 36  1  0
 25 37  1  0
 24 38  1  0
 24 39  1  0
 23 40  1  0
 23 41  1  0
 13  4  1  0
 31 22  1  0
 13  8  1  0
 30 26  2  0
M  END
>  <cnnaffinities>  (70) 
[5.11983]

>  <score>  (70) 
5.11983

>  <index>  (70) 
72

>  <Smiles>  (70) 
O=C(C(c1c(nc(c2c(c(c(c(c12)[H])[H])[H])[H])[H])[H])([H])[H])N1C(C(C(c2sc(c(c2C1([H])[H])[H])[H])([H])[H])([H])[H])([H])[H]

>  <h>  (70) 
<NA>

>  <Training>  (70) 
True

>  <Success>  (70) 
True

>  <enamine_searched>  (70) 
False

>  <enamine_id>  (70) 
nan

$$$$

     RDKit          3D

 50 53  0  0  0  0  0  0  0  0999 V2000
   -5.5898   -3.0363  -21.5673 O   0  0  0  0  0  0  0  0  0  0  0  0
   -6.7438   -2.7572  -21.8484 C   0  0  0  0  0  0  0  0  0  0  0  0
   -7.4098   -1.4782  -21.2679 C   0  0  0  0  0  0  0  0  0  0  0  0
   -6.5770   -0.8321  -20.1816 C   0  0  0  0  0  0  0  0  0  0  0  0
   -6.8739   -1.0496  -18.8648 C   0  0  0  0  0  0  0  0  0  0  0  0
   -6.1888   -0.5473  -17.8038 N   0  0  0  0  0  0  0  0  0  0  0  0
   -5.1576    0.2177  -18.0672 C   0  0  0  0  0  0  0  0  0  0  0  0
   -4.7233    0.5333  -19.3778 C   0  0  0  0  0  0  0  0  0  0  0  0
   -3.5954    1.3585  -19.6165 C   0  0  0  0  0  0  0  0  0  0  0  0
   -3.2048    1.6545  -20.8937 C   0  0  0  0  0  0  0  0  0  0  0  0
   -3.9395    1.1432  -21.9834 C   0  0  0  0  0  0  0  0  0  0  0  0
   -5.0270    0.3270  -21.7807 C   0  0  0  0  0  0  0  0  0  0  0  0
   -5.4526   -0.0017  -20.4718 C   0  0  0  0  0  0  0  0  0  0  0  0
   -5.5243   -0.1250  -22.6331 H   0  0  0  0  0  0  0  0  0  0  0  0
   -3.5912    1.3266  -22.9964 H   0  0  0  0  0  0  0  0  0  0  0  0
   -2.3261    2.2712  -21.0819 H   0  0  0  0  0  0  0  0  0  0  0  0
   -3.0575    1.7668  -18.7630 H   0  0  0  0  0  0  0  0  0  0  0  0
   -4.6079    0.6266  -17.2151 H   0  0  0  0  0  0  0  0  0  0  0  0
   -7.7238   -1.6728  -18.5849 H   0  0  0  0  0  0  0  0  0  0  0  0
   -7.6138   -0.7537  -22.0722 H   0  0  0  0  0  0  0  0  0  0  0  0
   -8.3934   -1.7519  -20.8529 H   0  0  0  0  0  0  0  0  0  0  0  0
   -7.4961   -3.5813  -22.6634 N   0  0  0  0  0  0  0  0  0  0  0  0
   -8.6412   -3.1263  -23.4323 C   0  0  0  0  0  0  0  0  0  0  0  0
   -9.7006   -4.2133  -23.5095 C   0  0  0  0  0  0  0  0  0  0  0  0
   -9.1491   -5.5098  -24.0940 C   0  0  0  0  0  0  0  0  0  0  0  0
   -7.9700   -5.9483  -23.2349 C   0  0  0  0  0  0  0  0  0  0  0  0
   -6.9023   -4.8568  -23.0981 C   0  0  1  0  0  0  0  0  0  0  0  0
   -6.0435   -4.6944  -24.3703 C   0  0  0  0  0  0  0  0  0  0  0  0
   -5.2112   -5.9207  -24.6851 C   0  0  0  0  0  0  0  0  0  0  0  0
   -4.0473   -6.1887  -23.9580 C   0  0  0  0  0  0  0  0  0  0  0  0
   -3.2848   -7.3215  -24.2206 C   0  0  0  0  0  0  0  0  0  0  0  0
   -3.6712   -8.2127  -25.2183 C   0  0  0  0  0  0  0  0  0  0  0  0
   -4.8285   -7.9609  -25.9506 C   0  0  0  0  0  0  0  0  0  0  0  0
   -5.5872   -6.8238  -25.6832 C   0  0  0  0  0  0  0  0  0  0  0  0
   -6.4959   -6.6383  -26.2541 H   0  0  0  0  0  0  0  0  0  0  0  0
   -5.1369   -8.6466  -26.7365 H   0  0  0  0  0  0  0  0  0  0  0  0
   -3.0698   -9.0945  -25.4258 H   0  0  0  0  0  0  0  0  0  0  0  0
   -2.3833   -7.5100  -23.6428 H   0  0  0  0  0  0  0  0  0  0  0  0
   -3.7447   -5.4986  -23.1731 H   0  0  0  0  0  0  0  0  0  0  0  0
   -6.6892   -4.4555  -25.2270 H   0  0  0  0  0  0  0  0  0  0  0  0
   -5.3818   -3.8338  -24.2111 H   0  0  0  0  0  0  0  0  0  0  0  0
   -6.2342   -5.1460  -22.2891 H   0  0  0  0  0  0  0  0  0  0  0  0
   -8.3471   -6.1905  -22.2354 H   0  0  0  0  0  0  0  0  0  0  0  0
   -7.5186   -6.8614  -23.6368 H   0  0  0  0  0  0  0  0  0  0  0  0
   -9.9319   -6.2822  -24.1145 H   0  0  0  0  0  0  0  0  0  0  0  0
   -8.8378   -5.3701  -25.1431 H   0  0  0  0  0  0  0  0  0  0  0  0
  -10.1287   -4.3993  -22.5145 H   0  0  0  0  0  0  0  0  0  0  0  0
  -10.5029   -3.8208  -24.1153 H   0  0  0  0  0  0  0  0  0  0  0  0
   -9.0752   -2.2323  -22.9791 H   0  0  0  0  0  0  0  0  0  0  0  0
   -8.3481   -2.8393  -24.4577 H   0  0  0  0  0  0  0  0  0  0  0  0
  1  2  2  0
  2  3  1  0
  3  4  1  0
  4  5  2  0
  5  6  1  0
  6  7  2  0
  7  8  1  0
  8  9  2  0
  9 10  1  0
 10 11  2  0
 11 12  1  0
 12 13  2  0
 12 14  1  0
 11 15  1  0
 10 16  1  0
  9 17  1  0
  7 18  1  0
  5 19  1  0
  3 20  1  0
  3 21  1  0
  2 22  1  0
 22 23  1  0
 23 24  1  0
 24 25  1  0
 25 26  1  0
 26 27  1  0
 27 28  1  0
 28 29  1  0
 29 30  2  0
 30 31  1  0
 31 32  2  0
 32 33  1  0
 33 34  2  0
 34 35  1  0
 33 36  1  0
 32 37  1  0
 31 38  1  0
 30 39  1  0
 28 40  1  0
 28 41  1  0
 27 42  1  1
 26 43  1  0
 26 44  1  0
 25 45  1  0
 25 46  1  0
 24 47  1  0
 24 48  1  0
 23 49  1  0
 23 50  1  0
 13  4  1  0
 27 22  1  0
 34 29  1  0
 13  8  1  0
M  END
>  <cnnaffinities>  (71) 
[5.60399, 4.74605, 4.74609]

>  <score>  (71) 
5.60399

>  <index>  (71) 
73

>  <Smiles>  (71) 
O=C(C(c1c(nc(c2c(c(c(c(c12)[H])[H])[H])[H])[H])[H])([H])[H])N1C(C(C(C([C@]1(C(c1c(c(c(c(c1[H])[H])[H])[H])[H])([H])[H])[H])([H])[H])([H])[H])([H])[H])([H])[H]

>  <h>  (71) 
<NA>

>  <Training>  (71) 
True

>  <Success>  (71) 
True

>  <enamine_searched>  (71) 
False

>  <enamine_id>  (71) 
nan

$$$$

     RDKit          3D

 43 47  0  0  0  0  0  0  0  0999 V2000
   -9.0727    0.1685  -21.0793 O   0  0  0  0  0  0  0  0  0  0  0  0
   -8.6609   -0.8997  -21.4751 C   0  0  0  0  0  0  0  0  0  0  0  0
   -9.2809   -1.8056  -22.2875 N   0  0  0  0  0  0  0  0  0  0  0  0
   -8.5949   -3.0781  -22.3425 C   0  0  1  0  0  0  0  0  0  0  0  0
   -9.3981   -4.3261  -21.9133 C   0  0  0  0  0  0  0  0  0  0  0  0
   -9.3120   -4.8928  -23.3583 C   0  0  2  0  0  0  0  0  0  0  0  0
   -8.6389   -6.2355  -23.3798 C   0  0  0  0  0  0  0  0  0  0  0  0
   -7.3762   -6.4195  -22.7952 C   0  0  0  0  0  0  0  0  0  0  0  0
   -6.7782   -7.6692  -22.6918 C   0  0  0  0  0  0  0  0  0  0  0  0
   -7.4644   -8.7780  -23.1755 C   0  0  0  0  0  0  0  0  0  0  0  0
   -8.6961   -8.6197  -23.7913 C   0  0  0  0  0  0  0  0  0  0  0  0
   -9.2569   -7.3586  -23.9124 C   0  0  0  0  0  0  0  0  0  0  0  0
  -10.7581   -7.2029  -24.7674 Cl  0  0  0  0  0  0  0  0  0  0  0  0
   -9.1979   -9.4789  -24.2166 H   0  0  0  0  0  0  0  0  0  0  0  0
   -7.0671   -9.7817  -23.0752 H   0  0  0  0  0  0  0  0  0  0  0  0
   -5.7960   -7.7580  -22.2273 H   0  0  0  0  0  0  0  0  0  0  0  0
   -6.8380   -5.5616  -22.3989 H   0  0  0  0  0  0  0  0  0  0  0  0
   -8.3929   -3.6988  -23.7497 C   0  0  0  0  0  0  0  0  0  0  0  0
   -8.7636   -3.0410  -24.5415 H   0  0  0  0  0  0  0  0  0  0  0  0
   -7.3636   -4.0134  -23.9629 H   0  0  0  0  0  0  0  0  0  0  0  0
  -10.2637   -4.8779  -23.8921 H   0  0  0  0  0  0  0  0  0  0  0  0
   -8.7962   -4.9724  -21.2914 H   0  0  0  0  0  0  0  0  0  0  0  0
  -10.3721   -4.1726  -21.4342 H   0  0  0  0  0  0  0  0  0  0  0  0
   -7.3216   -2.7887  -21.5589 C   0  0  0  0  0  0  0  0  0  0  0  0
   -6.4224   -3.5532  -21.2964 O   0  0  0  0  0  0  0  0  0  0  0  0
   -7.4027   -1.4483  -21.1723 N   0  0  0  0  0  0  0  0  0  0  0  0
   -6.5982   -0.8681  -20.1594 C   0  0  0  0  0  0  0  0  0  0  0  0
   -6.9108   -1.0985  -18.8456 C   0  0  0  0  0  0  0  0  0  0  0  0
   -6.2243   -0.5849  -17.7972 N   0  0  0  0  0  0  0  0  0  0  0  0
   -5.2102    0.1971  -18.0699 C   0  0  0  0  0  0  0  0  0  0  0  0
   -4.7998    0.5329  -19.3896 C   0  0  0  0  0  0  0  0  0  0  0  0
   -3.6765    1.3562  -19.6200 C   0  0  0  0  0  0  0  0  0  0  0  0
   -3.3081    1.6786  -20.8928 C   0  0  0  0  0  0  0  0  0  0  0  0
   -4.0500    1.1998  -21.9907 C   0  0  0  0  0  0  0  0  0  0  0  0
   -5.1296    0.3732  -21.8022 C   0  0  0  0  0  0  0  0  0  0  0  0
   -5.5184    0.0072  -20.4844 C   0  0  0  0  0  0  0  0  0  0  0  0
   -5.6656   -0.0143  -22.6627 H   0  0  0  0  0  0  0  0  0  0  0  0
   -3.7393    1.4651  -22.9961 H   0  0  0  0  0  0  0  0  0  0  0  0
   -2.4394    2.3012  -21.0687 H   0  0  0  0  0  0  0  0  0  0  0  0
   -3.1248    1.7150  -18.7607 H   0  0  0  0  0  0  0  0  0  0  0  0
   -4.6391    0.6023  -17.2314 H   0  0  0  0  0  0  0  0  0  0  0  0
   -7.7582   -1.7300  -18.5869 H   0  0  0  0  0  0  0  0  0  0  0  0
  -10.2741   -1.7114  -22.4497 H   0  0  0  0  0  0  0  0  0  0  0  0
  1  2  2  0
  2  3  1  0
  4  3  1  6
  4  5  1  0
  5  6  1  0
  6  7  1  0
  7  8  2  0
  8  9  1  0
  9 10  2  0
 10 11  1  0
 11 12  2  0
 12 13  1  0
 11 14  1  0
 10 15  1  0
  9 16  1  0
  8 17  1  0
  6 18  1  0
 18 19  1  0
 18 20  1  0
  6 21  1  6
  5 22  1  0
  5 23  1  0
  4 24  1  0
 24 25  2  0
 24 26  1  0
 26 27  1  0
 27 28  2  0
 28 29  1  0
 29 30  2  0
 30 31  1  0
 31 32  2  0
 32 33  1  0
 33 34  2  0
 34 35  1  0
 35 36  2  0
 35 37  1  0
 34 38  1  0
 33 39  1  0
 32 40  1  0
 30 41  1  0
 28 42  1  0
  3 43  1  0
 26  2  1  0
 36 27  1  0
 18  4  1  0
 36 31  1  0
 12  7  1  0
M  END
>  <cnnaffinities>  (72) 
[5.29244, 5.68781]

>  <score>  (72) 
5.29244

>  <index>  (72) 
74

>  <Smiles>  (72) 
O=C1N([C@]2(C([C@](c3c(c(c(c(c3Cl)[H])[H])[H])[H])(C2([H])[H])[H])([H])[H])C(=O)N1c1c(nc(c2c(c(c(c(c12)[H])[H])[H])[H])[H])[H])[H]

>  <h>  (72) 
<NA>

>  <Training>  (72) 
True

>  <Success>  (72) 
True

>  <enamine_searched>  (72) 
False

>  <enamine_id>  (72) 
nan

$$$$

     RDKit          3D

 66 71  0  0  0  0  0  0  0  0999 V2000
   -7.3520    3.3887  -21.9256 C   0  0  0  0  0  0  0  0  0  0  0  0
   -8.2949    2.8776  -22.9084 N   0  0  0  0  0  0  0  0  0  0  0  0
   -7.7808    2.1731  -23.9585 C   0  0  0  0  0  0  0  0  0  0  0  0
   -6.5768    2.0176  -24.1028 O   0  0  0  0  0  0  0  0  0  0  0  0
   -8.7836    1.5666  -24.9397 C   0  0  0  0  0  0  0  0  0  0  0  0
   -9.4358    0.4191  -24.3408 N   0  0  0  0  0  0  0  0  0  0  0  0
   -8.6881   -0.8193  -24.1640 C   0  0  0  0  0  0  0  0  0  0  0  0
   -9.0838   -1.5546  -22.8571 C   0  0  2  0  0  0  0  0  0  0  0  0
   -8.5706   -0.7722  -21.6252 C   0  0  0  0  0  0  0  0  0  0  0  0
   -9.0724    0.2072  -21.1071 O   0  0  0  0  0  0  0  0  0  0  0  0
   -7.4125   -1.3671  -21.1940 N   0  0  0  0  0  0  0  0  0  0  0  0
   -6.6318   -0.7874  -20.1700 C   0  0  0  0  0  0  0  0  0  0  0  0
   -6.9396   -1.0447  -18.8596 C   0  0  0  0  0  0  0  0  0  0  0  0
   -6.2381   -0.5739  -17.8021 N   0  0  0  0  0  0  0  0  0  0  0  0
   -5.2009    0.1875  -18.0593 C   0  0  0  0  0  0  0  0  0  0  0  0
   -4.7766    0.5425  -19.3728 C   0  0  0  0  0  0  0  0  0  0  0  0
   -3.6483    1.3757  -19.6028 C   0  0  0  0  0  0  0  0  0  0  0  0
   -3.2876    1.7213  -20.8777 C   0  0  0  0  0  0  0  0  0  0  0  0
   -4.0430    1.2667  -21.9798 C   0  0  0  0  0  0  0  0  0  0  0  0
   -5.1289    0.4434  -21.7865 C   0  0  0  0  0  0  0  0  0  0  0  0
   -5.5183    0.0538  -20.4736 C   0  0  0  0  0  0  0  0  0  0  0  0
   -5.7007    0.1083  -22.6457 H   0  0  0  0  0  0  0  0  0  0  0  0
   -3.7659    1.5576  -22.9894 H   0  0  0  0  0  0  0  0  0  0  0  0
   -2.4184    2.3505  -21.0483 H   0  0  0  0  0  0  0  0  0  0  0  0
   -3.0902    1.7324  -18.7423 H   0  0  0  0  0  0  0  0  0  0  0  0
   -4.6351    0.5659  -17.2068 H   0  0  0  0  0  0  0  0  0  0  0  0
   -7.7994   -1.6688  -18.6294 H   0  0  0  0  0  0  0  0  0  0  0  0
   -7.0277   -2.5475  -21.9319 C   0  0  0  0  0  0  0  0  0  0  0  0
   -8.3142   -2.9105  -22.6934 C   0  0  2  0  0  0  0  0  0  0  0  0
   -8.0139   -3.7048  -23.9786 C   0  0  0  0  0  0  0  0  0  0  0  0
   -7.5125   -5.0475  -23.7530 N   0  0  0  0  0  0  0  0  0  0  0  0
   -6.2084   -5.3797  -23.4790 C   0  0  0  0  0  0  0  0  0  0  0  0
   -5.0949   -4.5965  -23.8696 C   0  0  0  0  0  0  0  0  0  0  0  0
   -3.8475   -4.9577  -23.6024 N   0  0  0  0  0  0  0  0  0  0  0  0
   -3.6743   -6.1035  -22.9412 C   0  0  0  0  0  0  0  0  0  0  0  0
   -4.7591   -6.8794  -22.5673 C   0  0  0  0  0  0  0  0  0  0  0  0
   -6.0178   -6.5365  -22.8391 N   0  0  0  0  0  0  0  0  0  0  0  0
   -4.6169   -7.8117  -22.0246 H   0  0  0  0  0  0  0  0  0  0  0  0
   -2.6523   -6.3979  -22.7104 H   0  0  0  0  0  0  0  0  0  0  0  0
   -5.2169   -3.6636  -24.4163 H   0  0  0  0  0  0  0  0  0  0  0  0
   -8.1583   -5.7243  -23.3662 H   0  0  0  0  0  0  0  0  0  0  0  0
   -7.2734   -3.1634  -24.5795 H   0  0  0  0  0  0  0  0  0  0  0  0
   -8.9232   -3.7824  -24.5849 H   0  0  0  0  0  0  0  0  0  0  0  0
   -8.9126   -3.5484  -22.0318 H   0  0  0  0  0  0  0  0  0  0  0  0
   -6.6865   -3.3362  -21.2549 H   0  0  0  0  0  0  0  0  0  0  0  0
   -6.1924   -2.3335  -22.6178 H   0  0  0  0  0  0  0  0  0  0  0  0
  -10.5961   -1.6124  -22.7993 C   0  0  0  0  0  0  0  0  0  0  0  0
  -11.2360   -2.4544  -21.8812 C   0  0  0  0  0  0  0  0  0  0  0  0
  -12.6143   -2.3976  -21.7384 C   0  0  0  0  0  0  0  0  0  0  0  0
  -13.3962   -3.1886  -20.4033 Cl  0  0  0  0  0  0  0  0  0  0  0  0
  -13.4091   -1.5993  -22.5631 C   0  0  0  0  0  0  0  0  0  0  0  0
  -12.7825   -0.7582  -23.4544 C   0  0  0  0  0  0  0  0  0  0  0  0
  -11.3927   -0.7129  -23.5244 C   0  0  0  0  0  0  0  0  0  0  0  0
  -10.7969    0.4390  -24.2658 C   0  0  0  0  0  0  0  0  0  0  0  0
  -11.4788    1.3532  -24.7118 O   0  0  0  0  0  0  0  0  0  0  0  0
  -13.3394   -0.0729  -24.0830 H   0  0  0  0  0  0  0  0  0  0  0  0
  -14.4897   -1.5853  -22.4298 H   0  0  0  0  0  0  0  0  0  0  0  0
  -10.6608   -3.1312  -21.2571 H   0  0  0  0  0  0  0  0  0  0  0  0
   -8.8687   -1.4927  -25.0120 H   0  0  0  0  0  0  0  0  0  0  0  0
   -7.6222   -0.5801  -24.1608 H   0  0  0  0  0  0  0  0  0  0  0  0
   -8.2506    1.2862  -25.8558 H   0  0  0  0  0  0  0  0  0  0  0  0
   -9.5787    2.2714  -25.2060 H   0  0  0  0  0  0  0  0  0  0  0  0
   -9.2216    2.6512  -22.5739 H   0  0  0  0  0  0  0  0  0  0  0  0
   -6.7886    2.5572  -21.4808 H   0  0  0  0  0  0  0  0  0  0  0  0
   -6.6461    4.0687  -22.4091 H   0  0  0  0  0  0  0  0  0  0  0  0
   -7.8831    3.9541  -21.1563 H   0  0  0  0  0  0  0  0  0  0  0  0
  1  2  1  0
  2  3  1  0
  3  4  2  0
  3  5  1  0
  5  6  1  0
  6  7  1  0
  8  7  1  6
  8  9  1  0
  9 10  2  0
  9 11  1  0
 11 12  1  0
 12 13  2  0
 13 14  1  0
 14 15  2  0
 15 16  1  0
 16 17  2  0
 17 18  1  0
 18 19  2  0
 19 20  1  0
 20 21  2  0
 20 22  1  0
 19 23  1  0
 18 24  1  0
 17 25  1  0
 15 26  1  0
 13 27  1  0
 11 28  1  0
 28 29  1  0
 29 30  1  0
 30 31  1  0
 31 32  1  0
 32 33  2  0
 33 34  1  0
 34 35  2  0
 35 36  1  0
 36 37  2  0
 36 38  1  0
 35 39  1  0
 33 40  1  0
 31 41  1  0
 30 42  1  0
 30 43  1  0
 29 44  1  1
 28 45  1  0
 28 46  1  0
  8 47  1  0
 47 48  2  0
 48 49  1  0
 49 50  1  0
 49 51  2  0
 51 52  1  0
 52 53  2  0
 53 54  1  0
 54 55  2  0
 52 56  1  0
 51 57  1  0
 48 58  1  0
  7 59  1  0
  7 60  1  0
  5 61  1  0
  5 62  1  0
  2 63  1  0
  1 64  1  0
  1 65  1  0
  1 66  1  0
 54  6  1  0
 29  8  1  0
 37 32  1  0
 53 47  1  0
 21 12  1  0
 21 16  1  0
M  END
>  <cnnaffinities>  (73) 
[7.07878, 6.47757, 6.55996]

>  <score>  (73) 
7.07878

>  <index>  (73) 
75

>  <Smiles>  (73) 
C(N(C(=O)C(N1C([C@@]2(C(=O)N(c3c(nc(c4c(c(c(c(c34)[H])[H])[H])[H])[H])[H])C([C@@]2(C(N(c2c(nc(c(n2)[H])[H])[H])[H])([H])[H])[H])([H])[H])c2c(c(Cl)c(c(c2C1=O)[H])[H])[H])([H])[H])([H])[H])[H])([H])([H])[H]

>  <h>  (73) 
<NA>

>  <Training>  (73) 
True

>  <Success>  (73) 
True

>  <enamine_searched>  (73) 
False

>  <enamine_id>  (73) 
nan

$$$$

     RDKit          3D

 66 71  0  0  0  0  0  0  0  0999 V2000
   -8.1958   -3.4700  -24.1016 C   0  0  0  0  0  0  0  0  0  0  0  0
   -8.4654   -2.7339  -22.7827 C   0  0  1  0  0  0  0  0  0  0  0  0
   -7.1826   -2.5228  -21.9492 C   0  0  0  0  0  0  0  0  0  0  0  0
   -7.4576   -1.3163  -21.1894 N   0  0  0  0  0  0  0  0  0  0  0  0
   -6.6197   -0.7908  -20.1652 C   0  0  0  0  0  0  0  0  0  0  0  0
   -6.9129   -1.0437  -18.8517 C   0  0  0  0  0  0  0  0  0  0  0  0
   -6.1987   -0.5657  -17.8039 N   0  0  0  0  0  0  0  0  0  0  0  0
   -5.1712    0.2029  -18.0746 C   0  0  0  0  0  0  0  0  0  0  0  0
   -4.7481    0.5486  -19.3894 C   0  0  0  0  0  0  0  0  0  0  0  0
   -3.6285    1.3932  -19.6339 C   0  0  0  0  0  0  0  0  0  0  0  0
   -3.2581    1.7077  -20.9132 C   0  0  0  0  0  0  0  0  0  0  0  0
   -3.9877    1.1944  -22.0049 C   0  0  0  0  0  0  0  0  0  0  0  0
   -5.0652    0.3621  -21.7957 C   0  0  0  0  0  0  0  0  0  0  0  0
   -5.4900    0.0296  -20.4799 C   0  0  0  0  0  0  0  0  0  0  0  0
   -5.5686   -0.0773  -22.6515 H   0  0  0  0  0  0  0  0  0  0  0  0
   -3.6688    1.4157  -23.0198 H   0  0  0  0  0  0  0  0  0  0  0  0
   -2.3969    2.3484  -21.0970 H   0  0  0  0  0  0  0  0  0  0  0  0
   -3.0852    1.7847  -18.7780 H   0  0  0  0  0  0  0  0  0  0  0  0
   -4.6196    0.6076  -17.2239 H   0  0  0  0  0  0  0  0  0  0  0  0
   -7.7706   -1.6639  -18.5974 H   0  0  0  0  0  0  0  0  0  0  0  0
   -8.5330   -0.5950  -21.6478 C   0  0  0  0  0  0  0  0  0  0  0  0
   -8.9229    0.4485  -21.1550 O   0  0  0  0  0  0  0  0  0  0  0  0
   -9.1331   -1.3221  -22.8766 C   0  0  1  0  0  0  0  0  0  0  0  0
   -8.7118   -0.5857  -24.1703 C   0  0  0  0  0  0  0  0  0  0  0  0
   -9.3139    0.7294  -24.2652 N   0  0  0  0  0  0  0  0  0  0  0  0
   -8.5181    1.7854  -24.8632 C   0  0  0  0  0  0  0  0  0  0  0  0
   -7.5555    2.4185  -23.8687 C   0  0  0  0  0  0  0  0  0  0  0  0
   -8.2809    3.2266  -22.8368 N   0  0  0  0  0  4  0  0  0  0  0  0
   -7.4916    3.3302  -21.5795 C   0  0  0  0  0  0  0  0  0  0  0  0
   -6.3349    4.3084  -21.6368 C   0  0  0  0  0  0  0  0  0  0  0  0
   -6.8022    5.6001  -21.9557 O   0  0  0  0  0  0  0  0  0  0  0  0
   -7.4384    5.5939  -23.2145 C   0  0  0  0  0  0  0  0  0  0  0  0
   -8.6440    4.6468  -23.2542 C   0  0  0  0  0  0  0  0  0  0  0  0
   -9.4026    5.0026  -22.5516 H   0  0  0  0  0  0  0  0  0  0  0  0
   -9.0684    4.6197  -24.2595 H   0  0  0  0  0  0  0  0  0  0  0  0
   -6.7126    5.3070  -23.9890 H   0  0  0  0  0  0  0  0  0  0  0  0
   -7.7626    6.6211  -23.3967 H   0  0  0  0  0  0  0  0  0  0  0  0
   -5.8832    4.3737  -20.6450 H   0  0  0  0  0  0  0  0  0  0  0  0
   -5.5692    3.9741  -22.3574 H   0  0  0  0  0  0  0  0  0  0  0  0
   -7.1444    2.3257  -21.3194 H   0  0  0  0  0  0  0  0  0  0  0  0
   -8.1753    3.6911  -20.8077 H   0  0  0  0  0  0  0  0  0  0  0  0
   -9.1396    2.7016  -22.5771 H   0  0  0  0  0  0  0  0  0  0  0  0
   -6.9923    1.6467  -23.3301 H   0  0  0  0  0  0  0  0  0  0  0  0
   -6.8341    3.0536  -24.3850 H   0  0  0  0  0  0  0  0  0  0  0  0
   -7.9413    1.3744  -25.6975 H   0  0  0  0  0  0  0  0  0  0  0  0
   -9.2182    2.5287  -25.2408 H   0  0  0  0  0  0  0  0  0  0  0  0
  -10.6605    0.8884  -24.1087 C   0  0  0  0  0  0  0  0  0  0  0  0
  -11.2703    1.8895  -24.4707 O   0  0  0  0  0  0  0  0  0  0  0  0
  -11.3640   -0.2366  -23.4043 C   0  0  0  0  0  0  0  0  0  0  0  0
  -12.7524   -0.1631  -23.3110 C   0  0  0  0  0  0  0  0  0  0  0  0
  -13.4427   -1.0965  -22.5678 C   0  0  0  0  0  0  0  0  0  0  0  0
  -12.7334   -2.0836  -21.8869 C   0  0  0  0  0  0  0  0  0  0  0  0
  -13.6211   -3.1087  -20.7996 Cl  0  0  0  0  0  0  0  0  0  0  0  0
  -11.3584   -2.1929  -21.9974 C   0  0  0  0  0  0  0  0  0  0  0  0
  -10.6521   -1.2858  -22.7988 C   0  0  0  0  0  0  0  0  0  0  0  0
  -10.8444   -2.9533  -21.4192 H   0  0  0  0  0  0  0  0  0  0  0  0
  -14.5184   -1.0524  -22.4580 H   0  0  0  0  0  0  0  0  0  0  0  0
  -13.2508    0.6672  -23.8023 H   0  0  0  0  0  0  0  0  0  0  0  0
   -7.6253   -0.4571  -24.1817 H   0  0  0  0  0  0  0  0  0  0  0  0
   -9.0060   -1.2045  -25.0333 H   0  0  0  0  0  0  0  0  0  0  0  0
   -6.9741   -3.3627  -21.2766 H   0  0  0  0  0  0  0  0  0  0  0  0
   -6.3029   -2.3980  -22.5994 H   0  0  0  0  0  0  0  0  0  0  0  0
   -9.1434   -3.3468  -22.1842 H   0  0  0  0  0  0  0  0  0  0  0  0
   -9.1012   -3.5774  -24.7105 H   0  0  0  0  0  0  0  0  0  0  0  0
   -7.4489   -2.9407  -24.7066 H   0  0  0  0  0  0  0  0  0  0  0  0
   -7.8026   -4.4759  -23.9146 H   0  0  0  0  0  0  0  0  0  0  0  0
  1  2  1  0
  2  3  1  0
  3  4  1  0
  4  5  1  0
  5  6  2  0
  6  7  1  0
  7  8  2  0
  8  9  1  0
  9 10  2  0
 10 11  1  0
 11 12  2  0
 12 13  1  0
 13 14  2  0
 13 15  1  0
 12 16  1  0
 11 17  1  0
 10 18  1  0
  8 19  1  0
  6 20  1  0
  4 21  1  0
 21 22  2  0
 21 23  1  0
 23 24  1  6
 24 25  1  0
 25 26  1  0
 26 27  1  0
 27 28  1  0
 28 29  1  0
 29 30  1  0
 30 31  1  0
 31 32  1  0
 32 33  1  0
 33 34  1  0
 33 35  1  0
 32 36  1  0
 32 37  1  0
 30 38  1  0
 30 39  1  0
 29 40  1  0
 29 41  1  0
 28 42  1  0
 27 43  1  0
 27 44  1  0
 26 45  1  0
 26 46  1  0
 25 47  1  0
 47 48  2  0
 47 49  1  0
 49 50  2  0
 50 51  1  0
 51 52  2  0
 52 53  1  0
 52 54  1  0
 54 55  2  0
 54 56  1  0
 51 57  1  0
 50 58  1  0
 24 59  1  0
 24 60  1  0
  3 61  1  0
  3 62  1  0
  2 63  1  1
  1 64  1  0
  1 65  1  0
  1 66  1  0
 23  2  1  0
 33 28  1  0
 55 49  1  0
 14  5  1  0
 55 23  1  0
 14  9  1  0
M  CHG  1  28   1
M  END
>  <cnnaffinities>  (74) 
[6.4199]

>  <score>  (74) 
6.4199

>  <index>  (74) 
76

>  <Smiles>  (74) 
C([C@]1(C(N(c2c(nc(c3c(c(c(c(c23)[H])[H])[H])[H])[H])[H])C(=O)[C@]21C(N(C(C([N+]1(C(C(OC(C1([H])[H])([H])[H])([H])[H])([H])[H])[H])([H])[H])([H])[H])C(=O)c1c(c(c(Cl)c(c21)[H])[H])[H])([H])[H])([H])[H])[H])([H])([H])[H]

>  <h>  (74) 
<NA>

>  <Training>  (74) 
True

>  <Success>  (74) 
True

>  <enamine_searched>  (74) 
False

>  <enamine_id>  (74) 
nan

$$$$

     RDKit          3D

 55 60  0  0  0  0  0  0  0  0999 V2000
   -7.8774   -3.5915  -24.1081 C   0  0  0  0  0  0  0  0  0  0  0  0
   -8.2838   -2.8472  -22.8285 C   0  0  1  0  0  0  0  0  0  0  0  0
   -7.0802   -2.6103  -21.8891 C   0  0  0  0  0  0  0  0  0  0  0  0
   -7.4067   -1.3793  -21.1977 N   0  0  0  0  0  0  0  0  0  0  0  0
   -6.6039   -0.8069  -20.1711 C   0  0  0  0  0  0  0  0  0  0  0  0
   -6.9050   -1.0485  -18.8576 C   0  0  0  0  0  0  0  0  0  0  0  0
   -6.1985   -0.5601  -17.8080 N   0  0  0  0  0  0  0  0  0  0  0  0
   -5.1694    0.2066  -18.0735 C   0  0  0  0  0  0  0  0  0  0  0  0
   -4.7389    0.5437  -19.3887 C   0  0  0  0  0  0  0  0  0  0  0  0
   -3.6106    1.3779  -19.6291 C   0  0  0  0  0  0  0  0  0  0  0  0
   -3.2261    1.6753  -20.9055 C   0  0  0  0  0  0  0  0  0  0  0  0
   -3.9544    1.1545  -21.9959 C   0  0  0  0  0  0  0  0  0  0  0  0
   -5.0384    0.3310  -21.7901 C   0  0  0  0  0  0  0  0  0  0  0  0
   -5.4727    0.0171  -20.4775 C   0  0  0  0  0  0  0  0  0  0  0  0
   -5.5661   -0.0762  -22.6483 H   0  0  0  0  0  0  0  0  0  0  0  0
   -3.6401    1.3724  -23.0115 H   0  0  0  0  0  0  0  0  0  0  0  0
   -2.3589    2.3036  -21.0930 H   0  0  0  0  0  0  0  0  0  0  0  0
   -3.0699    1.7708  -18.7715 H   0  0  0  0  0  0  0  0  0  0  0  0
   -4.6210    0.6123  -17.2218 H   0  0  0  0  0  0  0  0  0  0  0  0
   -7.7591   -1.6706  -18.6004 H   0  0  0  0  0  0  0  0  0  0  0  0
   -8.4306   -0.6592  -21.7701 C   0  0  0  0  0  0  0  0  0  0  0  0
   -8.8232    0.4049  -21.3421 O   0  0  0  0  0  0  0  0  0  0  0  0
   -8.9698   -1.4482  -22.9994 C   0  0  1  0  0  0  0  0  0  0  0  0
   -8.5225   -0.7739  -24.3242 C   0  0  0  0  0  0  0  0  0  0  0  0
   -9.2095    0.4747  -24.5801 N   0  0  0  0  0  0  0  0  0  0  0  0
   -8.4414    1.6662  -24.9110 C   0  0  0  0  0  0  0  0  0  0  0  0
   -8.1379    2.5225  -23.7151 C   0  0  0  0  0  0  0  0  0  0  0  0
   -8.9552    3.3786  -23.0694 C   0  0  0  0  0  0  0  0  0  0  0  0
   -8.2700    3.9274  -22.0339 O   0  0  0  0  0  0  0  0  0  0  0  0
   -7.0634    3.3403  -22.0781 C   0  0  0  0  0  0  0  0  0  0  0  0
   -6.9082    2.5152  -23.0631 N   0  0  0  0  0  0  0  0  0  0  0  0
   -6.3948    3.5857  -21.2607 H   0  0  0  0  0  0  0  0  0  0  0  0
   -9.9880    3.6678  -23.1766 H   0  0  0  0  0  0  0  0  0  0  0  0
   -9.0358    2.2274  -25.6383 H   0  0  0  0  0  0  0  0  0  0  0  0
   -7.4986    1.3587  -25.3746 H   0  0  0  0  0  0  0  0  0  0  0  0
  -10.5633    0.6018  -24.4346 C   0  0  0  0  0  0  0  0  0  0  0  0
  -11.1834    1.5789  -24.8422 O   0  0  0  0  0  0  0  0  0  0  0  0
  -11.2374   -0.5107  -23.6879 C   0  0  0  0  0  0  0  0  0  0  0  0
  -12.6323   -0.5102  -23.6365 C   0  0  0  0  0  0  0  0  0  0  0  0
  -13.3013   -1.3997  -22.8210 C   0  0  0  0  0  0  0  0  0  0  0  0
  -12.5493   -2.2626  -22.0328 C   0  0  0  0  0  0  0  0  0  0  0  0
  -13.1941   -3.0788  -21.1840 F   0  0  0  0  0  0  0  0  0  0  0  0
  -11.1720   -2.2973  -22.0791 C   0  0  0  0  0  0  0  0  0  0  0  0
  -10.4901   -1.4513  -22.9622 C   0  0  0  0  0  0  0  0  0  0  0  0
  -10.6565   -2.9612  -21.3944 H   0  0  0  0  0  0  0  0  0  0  0  0
  -14.3811   -1.4201  -22.7471 H   0  0  0  0  0  0  0  0  0  0  0  0
  -13.1573    0.2294  -24.2315 H   0  0  0  0  0  0  0  0  0  0  0  0
   -8.6994   -1.4721  -25.1573 H   0  0  0  0  0  0  0  0  0  0  0  0
   -7.4522   -0.5506  -24.2537 H   0  0  0  0  0  0  0  0  0  0  0  0
   -6.1429   -2.5107  -22.4594 H   0  0  0  0  0  0  0  0  0  0  0  0
   -6.9387   -3.4270  -21.1711 H   0  0  0  0  0  0  0  0  0  0  0  0
   -9.0051   -3.4700  -22.2950 H   0  0  0  0  0  0  0  0  0  0  0  0
   -8.7231   -3.7365  -24.7901 H   0  0  0  0  0  0  0  0  0  0  0  0
   -7.0986   -3.0461  -24.6556 H   0  0  0  0  0  0  0  0  0  0  0  0
   -7.4712   -4.5810  -23.8695 H   0  0  0  0  0  0  0  0  0  0  0  0
  1  2  1  0
  2  3  1  0
  3  4  1  0
  4  5  1  0
  5  6  2  0
  6  7  1  0
  7  8  2  0
  8  9  1  0
  9 10  2  0
 10 11  1  0
 11 12  2  0
 12 13  1  0
 13 14  2  0
 13 15  1  0
 12 16  1  0
 11 17  1  0
 10 18  1  0
  8 19  1  0
  6 20  1  0
  4 21  1  0
 21 22  2  0
 21 23  1  0
 23 24  1  6
 24 25  1  0
 25 26  1  0
 26 27  1  0
 27 28  2  0
 28 29  1  0
 29 30  1  0
 30 31  2  0
 30 32  1  0
 28 33  1  0
 26 34  1  0
 26 35  1  0
 25 36  1  0
 36 37  2  0
 36 38  1  0
 38 39  2  0
 39 40  1  0
 40 41  2  0
 41 42  1  0
 41 43  1  0
 43 44  2  0
 43 45  1  0
 40 46  1  0
 39 47  1  0
 24 48  1  0
 24 49  1  0
  3 50  1  0
  3 51  1  0
  2 52  1  1
  1 53  1  0
  1 54  1  0
  1 55  1  0
 23  2  1  0
 31 27  1  0
 44 38  1  0
 14  5  1  0
 44 23  1  0
 14  9  1  0
M  END
>  <cnnaffinities>  (75) 
[6.15752]

>  <score>  (75) 
6.15752

>  <index>  (75) 
77

>  <Smiles>  (75) 
C([C@]1(C(N(c2c(nc(c3c(c(c(c(c23)[H])[H])[H])[H])[H])[H])C(=O)[C@]21C(N(C(c1c(oc(n1)[H])[H])([H])[H])C(=O)c1c(c(c(F)c(c21)[H])[H])[H])([H])[H])([H])[H])[H])([H])([H])[H]

>  <h>  (75) 
<NA>

>  <Training>  (75) 
True

>  <Success>  (75) 
True

>  <enamine_searched>  (75) 
False

>  <enamine_id>  (75) 
nan

$$$$

     RDKit          3D

 56 60  0  0  0  0  0  0  0  0999 V2000
   -7.3104    3.4463  -21.8845 C   0  0  0  0  0  0  0  0  0  0  0  0
   -8.1460    2.9735  -22.9744 N   0  0  0  0  0  0  0  0  0  0  0  0
   -7.5741    2.2629  -23.9743 C   0  0  0  0  0  0  0  0  0  0  0  0
   -6.3620    2.1338  -24.0760 O   0  0  0  0  0  0  0  0  0  0  0  0
   -8.5352    1.6435  -25.0032 C   0  0  0  0  0  0  0  0  0  0  0  0
   -9.2803    0.5016  -24.5037 N   0  0  0  0  0  0  0  0  0  0  0  0
   -8.5779   -0.7551  -24.3103 C   0  0  0  0  0  0  0  0  0  0  0  0
   -8.9898   -1.4555  -22.9892 C   0  0  2  0  0  0  0  0  0  0  0  0
   -8.4428   -0.6649  -21.7681 C   0  0  0  0  0  0  0  0  0  0  0  0
   -8.8378    0.4006  -21.3488 O   0  0  0  0  0  0  0  0  0  0  0  0
   -7.4114   -1.3769  -21.2004 N   0  0  0  0  0  0  0  0  0  0  0  0
   -6.6098   -0.8027  -20.1742 C   0  0  0  0  0  0  0  0  0  0  0  0
   -6.9060   -1.0457  -18.8593 C   0  0  0  0  0  0  0  0  0  0  0  0
   -6.1992   -0.5585  -17.8098 N   0  0  0  0  0  0  0  0  0  0  0  0
   -5.1670    0.2058  -18.0736 C   0  0  0  0  0  0  0  0  0  0  0  0
   -4.7356    0.5402  -19.3884 C   0  0  0  0  0  0  0  0  0  0  0  0
   -3.6068    1.3732  -19.6310 C   0  0  0  0  0  0  0  0  0  0  0  0
   -3.2288    1.6801  -20.9099 C   0  0  0  0  0  0  0  0  0  0  0  0
   -3.9688    1.1747  -22.0014 C   0  0  0  0  0  0  0  0  0  0  0  0
   -5.0577    0.3607  -21.7918 C   0  0  0  0  0  0  0  0  0  0  0  0
   -5.4805    0.0254  -20.4785 C   0  0  0  0  0  0  0  0  0  0  0  0
   -5.5800   -0.0645  -22.6443 H   0  0  0  0  0  0  0  0  0  0  0  0
   -3.6604    1.3860  -23.0193 H   0  0  0  0  0  0  0  0  0  0  0  0
   -2.3578    2.3024  -21.0949 H   0  0  0  0  0  0  0  0  0  0  0  0
   -3.0663    1.7689  -18.7752 H   0  0  0  0  0  0  0  0  0  0  0  0
   -4.6213    0.6118  -17.2218 H   0  0  0  0  0  0  0  0  0  0  0  0
   -7.7571   -1.6708  -18.6003 H   0  0  0  0  0  0  0  0  0  0  0  0
   -7.0881   -2.6123  -21.8850 C   0  0  0  0  0  0  0  0  0  0  0  0
   -8.2925   -2.8487  -22.8269 C   0  0  2  0  0  0  0  0  0  0  0  0
   -7.8794   -3.5866  -24.1090 C   0  0  0  0  0  0  0  0  0  0  0  0
   -7.4619   -4.5733  -23.8722 H   0  0  0  0  0  0  0  0  0  0  0  0
   -7.1089   -3.0320  -24.6597 H   0  0  0  0  0  0  0  0  0  0  0  0
   -8.7268   -3.7402  -24.7870 H   0  0  0  0  0  0  0  0  0  0  0  0
   -9.0090   -3.4827  -22.2993 H   0  0  0  0  0  0  0  0  0  0  0  0
   -6.1472   -2.5225  -22.4529 H   0  0  0  0  0  0  0  0  0  0  0  0
   -6.9501   -3.4277  -21.1633 H   0  0  0  0  0  0  0  0  0  0  0  0
  -10.5107   -1.4722  -22.9230 C   0  0  0  0  0  0  0  0  0  0  0  0
  -11.1657   -2.2966  -21.9972 C   0  0  0  0  0  0  0  0  0  0  0  0
  -12.5436   -2.2532  -21.8909 C   0  0  0  0  0  0  0  0  0  0  0  0
  -13.3700   -3.1315  -20.6384 Cl  0  0  0  0  0  0  0  0  0  0  0  0
  -13.3127   -1.4356  -22.7160 C   0  0  0  0  0  0  0  0  0  0  0  0
  -12.6742   -0.5639  -23.5706 C   0  0  0  0  0  0  0  0  0  0  0  0
  -11.2813   -0.5480  -23.6417 C   0  0  0  0  0  0  0  0  0  0  0  0
  -10.6432    0.5697  -24.4097 C   0  0  0  0  0  0  0  0  0  0  0  0
  -11.3074    1.4882  -24.8679 O   0  0  0  0  0  0  0  0  0  0  0  0
  -13.2236    0.1645  -24.1577 H   0  0  0  0  0  0  0  0  0  0  0  0
  -14.3911   -1.4563  -22.6205 H   0  0  0  0  0  0  0  0  0  0  0  0
  -10.6064   -2.9323  -21.3198 H   0  0  0  0  0  0  0  0  0  0  0  0
   -7.5097   -0.5229  -24.2792 H   0  0  0  0  0  0  0  0  0  0  0  0
   -8.7699   -1.4407  -25.1522 H   0  0  0  0  0  0  0  0  0  0  0  0
   -7.9019    1.3548  -25.8481 H   0  0  0  0  0  0  0  0  0  0  0  0
   -9.2920    2.3534  -25.3532 H   0  0  0  0  0  0  0  0  0  0  0  0
   -9.1498    2.9338  -22.8516 H   0  0  0  0  0  0  0  0  0  0  0  0
   -7.9612    3.9190  -21.1464 H   0  0  0  0  0  0  0  0  0  0  0  0
   -6.7461    2.6100  -21.4356 H   0  0  0  0  0  0  0  0  0  0  0  0
   -6.5860    4.1890  -22.2432 H   0  0  0  0  0  0  0  0  0  0  0  0
  1  2  1  0
  2  3  1  0
  3  4  2  0
  3  5  1  0
  5  6  1  0
  6  7  1  0
  8  7  1  6
  8  9  1  0
  9 10  2  0
  9 11  1  0
 11 12  1  0
 12 13  2  0
 13 14  1  0
 14 15  2  0
 15 16  1  0
 16 17  2  0
 17 18  1  0
 18 19  2  0
 19 20  1  0
 20 21  2  0
 20 22  1  0
 19 23  1  0
 18 24  1  0
 17 25  1  0
 15 26  1  0
 13 27  1  0
 11 28  1  0
 28 29  1  0
 29 30  1  0
 30 31  1  0
 30 32  1  0
 30 33  1  0
 29 34  1  1
 28 35  1  0
 28 36  1  0
  8 37  1  0
 37 38  2  0
 38 39  1  0
 39 40  1  0
 39 41  2  0
 41 42  1  0
 42 43  2  0
 43 44  1  0
 44 45  2  0
 42 46  1  0
 41 47  1  0
 38 48  1  0
  7 49  1  0
  7 50  1  0
  5 51  1  0
  5 52  1  0
  2 53  1  0
  1 54  1  0
  1 55  1  0
  1 56  1  0
 44  6  1  0
 29  8  1  0
 43 37  1  0
 21 12  1  0
 21 16  1  0
M  END
>  <cnnaffinities>  (76) 
[6.26865]

>  <score>  (76) 
6.26865

>  <index>  (76) 
78

>  <Smiles>  (76) 
C(N(C(=O)C(N1C([C@@]2(C(=O)N(c3c(nc(c4c(c(c(c(c34)[H])[H])[H])[H])[H])[H])C([C@@]2(C([H])([H])[H])[H])([H])[H])c2c(c(Cl)c(c(c2C1=O)[H])[H])[H])([H])[H])([H])[H])[H])([H])([H])[H]

>  <h>  (76) 
<NA>

>  <Training>  (76) 
True

>  <Success>  (76) 
True

>  <enamine_searched>  (76) 
False

>  <enamine_id>  (76) 
nan

$$$$

     RDKit          3D

 45 49  0  0  0  0  0  0  0  0999 V2000
  -10.5633   -2.6323  -22.5255 C   0  0  0  0  0  0  0  0  0  0  0  0
   -9.1642   -2.4271  -22.1937 N   0  0  0  0  0  0  0  0  0  0  0  0
   -8.7509   -1.3815  -21.4132 C   0  0  0  0  0  0  0  0  0  0  0  0
   -9.4300   -0.4586  -21.0164 O   0  0  0  0  0  0  0  0  0  0  0  0
   -7.3616   -1.5446  -21.2145 N   0  0  0  0  0  0  0  0  0  0  0  0
   -6.5993   -0.8692  -20.2019 C   0  0  0  0  0  0  0  0  0  0  0  0
   -6.9120   -1.0679  -18.8787 C   0  0  0  0  0  0  0  0  0  0  0  0
   -6.2164   -0.5555  -17.8316 N   0  0  0  0  0  0  0  0  0  0  0  0
   -5.1827    0.2028  -18.0963 C   0  0  0  0  0  0  0  0  0  0  0  0
   -4.7553    0.5274  -19.4122 C   0  0  0  0  0  0  0  0  0  0  0  0
   -3.6238    1.3639  -19.6324 C   0  0  0  0  0  0  0  0  0  0  0  0
   -3.2411    1.6855  -20.9046 C   0  0  0  0  0  0  0  0  0  0  0  0
   -3.9887    1.1966  -21.9973 C   0  0  0  0  0  0  0  0  0  0  0  0
   -5.0764    0.3770  -21.8086 C   0  0  0  0  0  0  0  0  0  0  0  0
   -5.4898   -0.0004  -20.5023 C   0  0  0  0  0  0  0  0  0  0  0  0
   -5.5983   -0.0330  -22.6660 H   0  0  0  0  0  0  0  0  0  0  0  0
   -3.6647    1.4197  -23.0083 H   0  0  0  0  0  0  0  0  0  0  0  0
   -2.3688    2.3091  -21.0845 H   0  0  0  0  0  0  0  0  0  0  0  0
   -3.0816    1.7462  -18.7706 H   0  0  0  0  0  0  0  0  0  0  0  0
   -4.6309    0.6061  -17.2453 H   0  0  0  0  0  0  0  0  0  0  0  0
   -7.7606   -1.6868  -18.6026 H   0  0  0  0  0  0  0  0  0  0  0  0
   -6.8640   -2.5382  -22.0604 C   0  0  0  0  0  0  0  0  0  0  0  0
   -5.7033   -2.8245  -22.2230 O   0  0  0  0  0  0  0  0  0  0  0  0
   -8.0645   -3.1717  -22.7504 C   0  0  0  0  0  0  0  0  0  0  0  0
   -7.9663   -3.2941  -24.2938 C   0  0  0  0  0  0  0  0  0  0  0  0
   -7.8805   -4.7891  -24.1655 N   0  0  0  0  0  0  0  0  0  0  0  0
   -9.0245   -5.6549  -25.0568 S   0  0  0  0  0  0  0  0  0  0  0  0
  -10.3187   -5.5190  -24.3938 O   0  0  0  0  0  0  0  0  0  0  0  0
   -8.8561   -5.2456  -26.4357 O   0  0  0  0  0  0  0  0  0  0  0  0
   -8.5590   -7.3610  -24.8955 C   0  0  0  0  0  0  0  0  0  0  0  0
   -9.1028   -8.1254  -23.7169 C   0  0  0  0  0  0  0  0  0  0  0  0
   -9.6935   -8.3407  -25.0728 C   0  0  0  0  0  0  0  0  0  0  0  0
  -10.6519   -7.8837  -25.2954 H   0  0  0  0  0  0  0  0  0  0  0  0
   -9.4998   -9.2747  -25.5939 H   0  0  0  0  0  0  0  0  0  0  0  0
   -8.4590   -8.8948  -23.3066 H   0  0  0  0  0  0  0  0  0  0  0  0
   -9.6838   -7.5721  -22.9824 H   0  0  0  0  0  0  0  0  0  0  0  0
   -7.5781   -7.5676  -25.3114 H   0  0  0  0  0  0  0  0  0  0  0  0
   -8.0785   -4.7156  -22.6973 C   0  0  0  0  0  0  0  0  0  0  0  0
   -7.2236   -5.1429  -22.1734 H   0  0  0  0  0  0  0  0  0  0  0  0
   -9.0153   -5.1487  -22.3366 H   0  0  0  0  0  0  0  0  0  0  0  0
   -8.8479   -2.9371  -24.8412 H   0  0  0  0  0  0  0  0  0  0  0  0
   -7.0668   -2.8701  -24.7415 H   0  0  0  0  0  0  0  0  0  0  0  0
  -10.9932   -1.6640  -22.7917 H   0  0  0  0  0  0  0  0  0  0  0  0
  -11.1164   -3.0290  -21.6650 H   0  0  0  0  0  0  0  0  0  0  0  0
  -10.6531   -3.3317  -23.3631 H   0  0  0  0  0  0  0  0  0  0  0  0
  1  2  1  0
  2  3  1  0
  3  4  2  0
  3  5  1  0
  5  6  1  0
  6  7  2  0
  7  8  1  0
  8  9  2  0
  9 10  1  0
 10 11  2  0
 11 12  1  0
 12 13  2  0
 13 14  1  0
 14 15  2  0
 14 16  1  0
 13 17  1  0
 12 18  1  0
 11 19  1  0
  9 20  1  0
  7 21  1  0
  5 22  1  0
 22 23  2  0
 22 24  1  0
 24 25  1  0
 25 26  1  0
 26 27  1  0
 27 28  2  0
 27 29  2  0
 27 30  1  0
 30 31  1  0
 31 32  1  0
 32 33  1  0
 32 34  1  0
 31 35  1  0
 31 36  1  0
 30 37  1  0
 26 38  1  0
 38 39  1  0
 38 40  1  0
 25 41  1  0
 25 42  1  0
  1 43  1  0
  1 44  1  0
  1 45  1  0
 24  2  1  0
 32 30  1  0
 15  6  1  0
 38 24  1  0
 15 10  1  0
M  END
>  <cnnaffinities>  (77) 
[5.02169, 4.60464, 4.61014]

>  <score>  (77) 
5.02169

>  <index>  (77) 
79

>  <Smiles>  (77) 
C(N1C(=O)N(c2c(nc(c3c(c(c(c(c23)[H])[H])[H])[H])[H])[H])C(=O)C21C(N(S(=O)(=O)C1(C(C1([H])[H])([H])[H])[H])C2([H])[H])([H])[H])([H])([H])[H]

>  <h>  (77) 
<NA>

>  <Training>  (77) 
True

>  <Success>  (77) 
True

>  <enamine_searched>  (77) 
False

>  <enamine_id>  (77) 
nan

$$$$

     RDKit          3D

 60 65  0  0  0  0  0  0  0  0999 V2000
   -8.7257   -8.1778  -25.9864 C   0  0  0  0  0  0  0  0  0  0  0  0
   -7.9711   -7.1752  -25.2499 N   0  0  0  0  0  0  0  0  0  0  0  0
   -7.2074   -7.3628  -24.1453 C   0  0  0  0  0  0  0  0  0  0  0  0
   -7.0126   -8.4377  -23.6012 O   0  0  0  0  0  0  0  0  0  0  0  0
   -6.5183   -6.1407  -23.5539 C   0  0  0  0  0  0  0  0  0  0  0  0
   -6.8989   -4.8328  -23.9884 N   0  0  0  0  0  0  0  0  0  0  0  0
   -8.0525   -4.2028  -23.3778 C   0  0  0  0  0  0  0  0  0  0  0  0
   -7.8544   -2.6857  -23.1697 C   0  0  2  0  0  0  0  0  0  0  0  0
   -6.8299   -2.4133  -22.0489 C   0  0  0  0  0  0  0  0  0  0  0  0
   -5.7320   -2.9234  -21.9170 O   0  0  0  0  0  0  0  0  0  0  0  0
   -7.3455   -1.4606  -21.2066 N   0  0  0  0  0  0  0  0  0  0  0  0
   -6.5697   -0.8561  -20.1853 C   0  0  0  0  0  0  0  0  0  0  0  0
   -6.9006   -1.0611  -18.8690 C   0  0  0  0  0  0  0  0  0  0  0  0
   -6.2168   -0.5510  -17.8178 N   0  0  0  0  0  0  0  0  0  0  0  0
   -5.1794    0.2073  -18.0847 C   0  0  0  0  0  0  0  0  0  0  0  0
   -4.7431    0.5279  -19.4031 C   0  0  0  0  0  0  0  0  0  0  0  0
   -3.6213    1.3702  -19.6284 C   0  0  0  0  0  0  0  0  0  0  0  0
   -3.2478    1.6954  -20.9038 C   0  0  0  0  0  0  0  0  0  0  0  0
   -3.9910    1.2100  -22.0033 C   0  0  0  0  0  0  0  0  0  0  0  0
   -5.0715    0.3812  -21.8149 C   0  0  0  0  0  0  0  0  0  0  0  0
   -5.4659    0.0038  -20.4971 C   0  0  0  0  0  0  0  0  0  0  0  0
   -5.6016   -0.0174  -22.6799 H   0  0  0  0  0  0  0  0  0  0  0  0
   -3.6687    1.4453  -23.0126 H   0  0  0  0  0  0  0  0  0  0  0  0
   -2.3753    2.3179  -21.0818 H   0  0  0  0  0  0  0  0  0  0  0  0
   -3.0774    1.7482  -18.7669 H   0  0  0  0  0  0  0  0  0  0  0  0
   -4.6294    0.6112  -17.2352 H   0  0  0  0  0  0  0  0  0  0  0  0
   -7.7575   -1.6842  -18.6169 H   0  0  0  0  0  0  0  0  0  0  0  0
   -8.6719   -1.0014  -21.5590 C   0  0  0  0  0  0  0  0  0  0  0  0
   -9.1522   -1.9674  -22.6633 C   0  0  2  0  0  0  0  0  0  0  0  0
  -10.2644   -2.8836  -22.1241 C   0  0  0  0  0  0  0  0  0  0  0  0
  -11.1046   -2.2796  -21.7668 H   0  0  0  0  0  0  0  0  0  0  0  0
  -10.6562   -3.5499  -22.8974 H   0  0  0  0  0  0  0  0  0  0  0  0
   -9.9176   -3.4966  -21.2846 H   0  0  0  0  0  0  0  0  0  0  0  0
   -9.5872   -1.4126  -23.5039 H   0  0  0  0  0  0  0  0  0  0  0  0
   -9.3350   -1.0535  -20.6976 H   0  0  0  0  0  0  0  0  0  0  0  0
   -8.6475    0.0476  -21.8855 H   0  0  0  0  0  0  0  0  0  0  0  0
   -7.3185   -2.0935  -24.4733 C   0  0  0  0  0  0  0  0  0  0  0  0
   -7.4698   -0.7267  -24.7503 C   0  0  0  0  0  0  0  0  0  0  0  0
   -6.9327   -0.1907  -25.9090 C   0  0  0  0  0  0  0  0  0  0  0  0
   -7.1203    1.5106  -26.2373 Cl  0  0  0  0  0  0  0  0  0  0  0  0
   -6.2311   -0.9796  -26.8195 C   0  0  0  0  0  0  0  0  0  0  0  0
   -6.0501   -2.3206  -26.5408 C   0  0  0  0  0  0  0  0  0  0  0  0
   -6.5761   -2.8720  -25.3716 C   0  0  0  0  0  0  0  0  0  0  0  0
   -6.2659   -4.2998  -25.0838 C   0  0  0  0  0  0  0  0  0  0  0  0
   -5.4951   -4.9630  -25.7685 O   0  0  0  0  0  0  0  0  0  0  0  0
   -5.4857   -2.9799  -27.1956 H   0  0  0  0  0  0  0  0  0  0  0  0
   -5.8225   -0.5309  -27.7165 H   0  0  0  0  0  0  0  0  0  0  0  0
   -7.9911   -0.0583  -24.0710 H   0  0  0  0  0  0  0  0  0  0  0  0
   -8.2060   -4.6887  -22.4159 H   0  0  0  0  0  0  0  0  0  0  0  0
   -8.9432   -4.3469  -24.0095 H   0  0  0  0  0  0  0  0  0  0  0  0
   -6.1569   -6.3019  -22.0901 C   0  0  0  0  0  0  0  0  0  0  0  0
   -5.0861   -6.3578  -23.1204 C   0  0  0  0  0  0  0  0  0  0  0  0
   -4.6571   -7.3227  -23.3705 H   0  0  0  0  0  0  0  0  0  0  0  0
   -4.4172   -5.5065  -23.2081 H   0  0  0  0  0  0  0  0  0  0  0  0
   -6.2274   -5.4045  -21.4815 H   0  0  0  0  0  0  0  0  0  0  0  0
   -6.4706   -7.2420  -21.6488 H   0  0  0  0  0  0  0  0  0  0  0  0
   -8.0629   -6.2377  -25.5959 H   0  0  0  0  0  0  0  0  0  0  0  0
   -8.0983   -8.7765  -26.6643 H   0  0  0  0  0  0  0  0  0  0  0  0
   -9.2351   -8.8811  -25.3226 H   0  0  0  0  0  0  0  0  0  0  0  0
   -9.4860   -7.6565  -26.5782 H   0  0  0  0  0  0  0  0  0  0  0  0
  1  2  1  0
  2  3  1  0
  3  4  2  0
  3  5  1  0
  5  6  1  0
  6  7  1  0
  8  7  1  6
  8  9  1  0
  9 10  2  0
  9 11  1  0
 11 12  1  0
 12 13  2  0
 13 14  1  0
 14 15  2  0
 15 16  1  0
 16 17  2  0
 17 18  1  0
 18 19  2  0
 19 20  1  0
 20 21  2  0
 20 22  1  0
 19 23  1  0
 18 24  1  0
 17 25  1  0
 15 26  1  0
 13 27  1  0
 11 28  1  0
 28 29  1  0
 29 30  1  0
 30 31  1  0
 30 32  1  0
 30 33  1  0
 29 34  1  6
 28 35  1  0
 28 36  1  0
  8 37  1  0
 37 38  2  0
 38 39  1  0
 39 40  1  0
 39 41  2  0
 41 42  1  0
 42 43  2  0
 43 44  1  0
 44 45  2  0
 42 46  1  0
 41 47  1  0
 38 48  1  0
  7 49  1  0
  7 50  1  0
  5 51  1  0
 51 52  1  0
 52 53  1  0
 52 54  1  0
 51 55  1  0
 51 56  1  0
  2 57  1  0
  1 58  1  0
  1 59  1  0
  1 60  1  0
 52  5  1  0
 44  6  1  0
 29  8  1  0
 43 37  1  0
 21 12  1  0
 21 16  1  0
M  END
>  <cnnaffinities>  (78) 
[5.79143]

>  <score>  (78) 
5.79143

>  <index>  (78) 
80

>  <Smiles>  (78) 
C(N(C(=O)C1(N2C([C@@]3(C(=O)N(c4c(nc(c5c(c(c(c(c45)[H])[H])[H])[H])[H])[H])C([C@@]3(C([H])([H])[H])[H])([H])[H])c3c(c(Cl)c(c(c3C2=O)[H])[H])[H])([H])[H])C(C1([H])[H])([H])[H])[H])([H])([H])[H]

>  <h>  (78) 
<NA>

>  <Training>  (78) 
True

>  <Success>  (78) 
True

>  <enamine_searched>  (78) 
False

>  <enamine_id>  (78) 
nan

$$$$

     RDKit          3D

 36 38  0  0  0  0  0  0  0  0999 V2000
   -8.5080    0.7110  -21.4643 O   0  0  0  0  0  0  0  0  0  0  0  0
   -8.3854   -0.4014  -21.9344 C   0  0  0  0  0  0  0  0  0  0  0  0
   -7.4384   -1.4326  -21.2764 C   0  0  0  0  0  0  0  0  0  0  0  0
   -6.5825   -0.8280  -20.1847 C   0  0  0  0  0  0  0  0  0  0  0  0
   -6.8787   -1.0409  -18.8633 C   0  0  0  0  0  0  0  0  0  0  0  0
   -6.1923   -0.5409  -17.8006 N   0  0  0  0  0  0  0  0  0  0  0  0
   -5.1575    0.2203  -18.0638 C   0  0  0  0  0  0  0  0  0  0  0  0
   -4.7261    0.5366  -19.3797 C   0  0  0  0  0  0  0  0  0  0  0  0
   -3.5995    1.3672  -19.6178 C   0  0  0  0  0  0  0  0  0  0  0  0
   -3.2171    1.6727  -20.8970 C   0  0  0  0  0  0  0  0  0  0  0  0
   -3.9610    1.1712  -21.9866 C   0  0  0  0  0  0  0  0  0  0  0  0
   -5.0468    0.3518  -21.7821 C   0  0  0  0  0  0  0  0  0  0  0  0
   -5.4600    0.0081  -20.4704 C   0  0  0  0  0  0  0  0  0  0  0  0
   -5.5739   -0.0634  -22.6343 H   0  0  0  0  0  0  0  0  0  0  0  0
   -3.6301    1.3777  -22.9991 H   0  0  0  0  0  0  0  0  0  0  0  0
   -2.3511    2.3022  -21.0857 H   0  0  0  0  0  0  0  0  0  0  0  0
   -3.0563    1.7724  -18.7679 H   0  0  0  0  0  0  0  0  0  0  0  0
   -4.6034    0.6263  -17.2152 H   0  0  0  0  0  0  0  0  0  0  0  0
   -7.7288   -1.6600  -18.5853 H   0  0  0  0  0  0  0  0  0  0  0  0
   -8.0406   -2.2447  -20.8452 H   0  0  0  0  0  0  0  0  0  0  0  0
   -6.8018   -1.8990  -22.0409 H   0  0  0  0  0  0  0  0  0  0  0  0
   -9.0621   -0.7718  -23.0896 N   0  0  0  0  0  0  0  0  0  0  0  0
   -9.3679   -2.1604  -23.4043 C   0  0  0  0  0  0  0  0  0  0  0  0
  -10.4477   -2.7811  -22.5524 C   0  0  0  0  0  0  0  0  0  0  0  0
  -11.5711   -2.1756  -22.1570 C   0  0  0  0  0  0  0  0  0  0  0  0
  -12.0216   -0.7919  -22.4178 C   0  0  0  0  0  0  0  0  0  0  0  0
  -11.3809    0.2146  -23.0218 C   0  0  0  0  0  0  0  0  0  0  0  0
  -10.0066    0.1956  -23.6429 C   0  0  0  0  0  0  0  0  0  0  0  0
   -9.5581    1.1913  -23.5952 H   0  0  0  0  0  0  0  0  0  0  0  0
  -10.1122   -0.0399  -24.7085 H   0  0  0  0  0  0  0  0  0  0  0  0
  -11.8919    1.1788  -23.0819 H   0  0  0  0  0  0  0  0  0  0  0  0
  -13.0198   -0.5788  -22.0380 H   0  0  0  0  0  0  0  0  0  0  0  0
  -12.2764   -2.7631  -21.5726 H   0  0  0  0  0  0  0  0  0  0  0  0
  -10.2820   -3.8155  -22.2472 H   0  0  0  0  0  0  0  0  0  0  0  0
   -9.6833   -2.1751  -24.4538 H   0  0  0  0  0  0  0  0  0  0  0  0
   -8.4500   -2.7531  -23.3592 H   0  0  0  0  0  0  0  0  0  0  0  0
  1  2  2  0
  2  3  1  0
  3  4  1  0
  4  5  2  0
  5  6  1  0
  6  7  2  0
  7  8  1  0
  8  9  2  0
  9 10  1  0
 10 11  2  0
 11 12  1  0
 12 13  2  0
 12 14  1  0
 11 15  1  0
 10 16  1  0
  9 17  1  0
  7 18  1  0
  5 19  1  0
  3 20  1  0
  3 21  1  0
  2 22  1  0
 22 23  1  0
 23 24  1  0
 24 25  2  0
 25 26  1  0
 26 27  2  0
 27 28  1  0
 28 29  1  0
 28 30  1  0
 27 31  1  0
 26 32  1  0
 25 33  1  0
 24 34  1  0
 23 35  1  0
 23 36  1  0
 13  4  1  0
 28 22  1  0
 13  8  1  0
M  END
>  <cnnaffinities>  (79) 
[4.39735, 4.39732, 4.51089, 4.50735, 4.0773, 4.07803]

>  <score>  (79) 
4.39735

>  <index>  (79) 
81

>  <Smiles>  (79) 
O=C(C(c1c(nc(c2c(c(c(c(c12)[H])[H])[H])[H])[H])[H])([H])[H])N1C(C(=C(C(=C(C1([H])[H])[H])[H])[H])[H])([H])[H]

>  <h>  (79) 
<NA>

>  <Training>  (79) 
True

>  <Success>  (79) 
True

>  <enamine_searched>  (79) 
False

>  <enamine_id>  (79) 
nan

$$$$

     RDKit          3D

 54 57  0  0  0  0  0  0  0  0999 V2000
   -9.4405    1.4483  -24.5531 C   0  0  0  0  0  0  0  0  0  0  0  0
   -8.8994    0.1541  -24.4442 O   0  0  0  0  0  0  0  0  0  0  0  0
   -7.6145   -0.0552  -24.8353 C   0  0  0  0  0  0  0  0  0  0  0  0
   -6.8007    0.9389  -25.3807 C   0  0  0  0  0  0  0  0  0  0  0  0
   -5.4946    0.6316  -25.7576 C   0  0  0  0  0  0  0  0  0  0  0  0
   -5.0115   -0.6621  -25.5976 C   0  0  0  0  0  0  0  0  0  0  0  0
   -5.8304   -1.6415  -25.0409 C   0  0  0  0  0  0  0  0  0  0  0  0
   -7.1246   -1.3569  -24.6342 C   0  0  0  0  0  0  0  0  0  0  0  0
   -8.0054   -2.4555  -24.0321 C   0  0  1  0  0  0  0  0  0  0  0  0
   -8.5382   -3.3671  -25.1487 C   0  0  0  0  0  0  0  0  0  0  0  0
   -9.2393   -4.6070  -24.5848 C   0  0  1  0  0  0  0  0  0  0  0  0
   -9.8531   -5.4698  -25.6904 C   0  0  0  0  0  0  0  0  0  0  0  0
  -10.5598   -4.9006  -26.2930 H   0  0  0  0  0  0  0  0  0  0  0  0
   -9.0834   -5.8460  -26.3753 H   0  0  0  0  0  0  0  0  0  0  0  0
  -10.3831   -6.3326  -25.2737 H   0  0  0  0  0  0  0  0  0  0  0  0
   -8.2658   -5.4349  -23.7171 C   0  0  0  0  0  0  0  0  0  0  0  0
   -6.9988   -4.6540  -23.3488 C   0  0  0  0  0  0  0  0  0  0  0  0
   -7.3104   -3.2632  -23.0273 N   0  0  0  0  0  0  0  0  0  0  0  0
   -6.7433   -2.7408  -21.8863 C   0  0  0  0  0  0  0  0  0  0  0  0
   -5.8240   -3.3069  -21.3161 O   0  0  0  0  0  0  0  0  0  0  0  0
   -7.3862   -1.4717  -21.2931 C   0  0  0  0  0  0  0  0  0  0  0  0
   -6.5738   -0.8372  -20.1959 C   0  0  0  0  0  0  0  0  0  0  0  0
   -6.8713   -1.0641  -18.8761 C   0  0  0  0  0  0  0  0  0  0  0  0
   -6.1920   -0.5588  -17.8116 N   0  0  0  0  0  0  0  0  0  0  0  0
   -5.1648    0.2092  -18.0734 C   0  0  0  0  0  0  0  0  0  0  0  0
   -4.7307    0.5370  -19.3877 C   0  0  0  0  0  0  0  0  0  0  0  0
   -3.6073    1.3688  -19.6154 C   0  0  0  0  0  0  0  0  0  0  0  0
   -3.2239    1.6720  -20.8908 C   0  0  0  0  0  0  0  0  0  0  0  0
   -3.9596    1.1671  -21.9872 C   0  0  0  0  0  0  0  0  0  0  0  0
   -5.0415    0.3441  -21.7994 C   0  0  0  0  0  0  0  0  0  0  0  0
   -5.4590    0.0091  -20.4830 C   0  0  0  0  0  0  0  0  0  0  0  0
   -5.5353   -0.0918  -22.6690 H   0  0  0  0  0  0  0  0  0  0  0  0
   -3.6278    1.3736  -23.0006 H   0  0  0  0  0  0  0  0  0  0  0  0
   -2.3481    2.2837  -21.0760 H   0  0  0  0  0  0  0  0  0  0  0  0
   -3.0682    1.7548  -18.7527 H   0  0  0  0  0  0  0  0  0  0  0  0
   -4.6207    0.6212  -17.2213 H   0  0  0  0  0  0  0  0  0  0  0  0
   -7.7251   -1.6829  -18.6021 H   0  0  0  0  0  0  0  0  0  0  0  0
   -7.6278   -0.7466  -22.0770 H   0  0  0  0  0  0  0  0  0  0  0  0
   -8.3526   -1.7851  -20.8747 H   0  0  0  0  0  0  0  0  0  0  0  0
   -6.2740   -4.7057  -24.1754 H   0  0  0  0  0  0  0  0  0  0  0  0
   -6.5125   -5.0686  -22.4655 H   0  0  0  0  0  0  0  0  0  0  0  0
   -7.9662   -6.3410  -24.2612 H   0  0  0  0  0  0  0  0  0  0  0  0
   -8.7836   -5.7638  -22.8070 H   0  0  0  0  0  0  0  0  0  0  0  0
  -10.0473   -4.2490  -23.9294 H   0  0  0  0  0  0  0  0  0  0  0  0
   -9.2379   -2.7670  -25.7440 H   0  0  0  0  0  0  0  0  0  0  0  0
   -7.7114   -3.6660  -25.8163 H   0  0  0  0  0  0  0  0  0  0  0  0
   -8.8614   -1.9641  -23.5553 H   0  0  0  0  0  0  0  0  0  0  0  0
   -5.4483   -2.6569  -24.9281 H   0  0  0  0  0  0  0  0  0  0  0  0
   -4.0032   -0.9245  -25.8992 H   0  0  0  0  0  0  0  0  0  0  0  0
   -4.8561    1.4092  -26.1730 H   0  0  0  0  0  0  0  0  0  0  0  0
   -7.1757    1.9479  -25.5039 H   0  0  0  0  0  0  0  0  0  0  0  0
   -9.4200    1.8168  -25.5848 H   0  0  0  0  0  0  0  0  0  0  0  0
   -8.8988    2.1668  -23.9230 H   0  0  0  0  0  0  0  0  0  0  0  0
  -10.4699    1.3361  -24.2094 H   0  0  0  0  0  0  0  0  0  0  0  0
  1  2  1  0
  2  3  1  0
  3  4  2  0
  4  5  1  0
  5  6  2  0
  6  7  1  0
  7  8  2  0
  8  9  1  0
  9 10  1  0
 10 11  1  0
 11 12  1  0
 12 13  1  0
 12 14  1  0
 12 15  1  0
 11 16  1  0
 16 17  1  0
 17 18  1  0
 18 19  1  0
 19 20  2  0
 19 21  1  0
 21 22  1  0
 22 23  2  0
 23 24  1  0
 24 25  2  0
 25 26  1  0
 26 27  2  0
 27 28  1  0
 28 29  2  0
 29 30  1  0
 30 31  2  0
 30 32  1  0
 29 33  1  0
 28 34  1  0
 27 35  1  0
 25 36  1  0
 23 37  1  0
 21 38  1  0
 21 39  1  0
 17 40  1  0
 17 41  1  0
 16 42  1  0
 16 43  1  0
 11 44  1  1
 10 45  1  0
 10 46  1  0
  9 47  1  1
  7 48  1  0
  6 49  1  0
  5 50  1  0
  4 51  1  0
  1 52  1  0
  1 53  1  0
  1 54  1  0
  8  3  1  0
 18  9  1  0
 31 22  1  0
 31 26  1  0
M  END
>  <cnnaffinities>  (80) 
[5.39102, 5.10817]

>  <score>  (80) 
5.39102

>  <index>  (80) 
82

>  <Smiles>  (80) 
C(Oc1c(c(c(c(c1[C@]1(C([C@@](C([H])([H])[H])(C(C(N1C(=O)C(c1c(nc(c2c(c(c(c(c12)[H])[H])[H])[H])[H])[H])([H])[H])([H])[H])([H])[H])[H])([H])[H])[H])[H])[H])[H])[H])([H])([H])[H]

>  <h>  (80) 
<NA>

>  <Training>  (80) 
True

>  <Success>  (80) 
True

>  <enamine_searched>  (80) 
False

>  <enamine_id>  (80) 
nan

$$$$

     RDKit          3D

 46 50  0  0  0  0  0  0  0  0999 V2000
   -3.6222   -1.0698  -25.3525 N   0  0  0  0  0  0  0  0  0  0  0  0
   -4.5233   -2.0093  -26.3679 S   0  0  0  0  0  0  0  0  0  0  0  0
   -4.3113   -3.3692  -25.9118 O   0  0  0  0  0  0  0  0  0  0  0  0
   -4.1944   -1.5688  -27.7094 O   0  0  0  0  0  0  0  0  0  0  0  0
   -6.2274   -1.5846  -26.0854 C   0  0  0  0  0  0  0  0  0  0  0  0
   -6.9760   -0.9871  -27.0992 C   0  0  0  0  0  0  0  0  0  0  0  0
   -8.2861   -0.6287  -26.8446 C   0  0  0  0  0  0  0  0  0  0  0  0
   -8.8398   -0.8497  -25.5795 C   0  0  0  0  0  0  0  0  0  0  0  0
   -8.0959   -1.4545  -24.5659 C   0  0  0  0  0  0  0  0  0  0  0  0
   -6.7783   -1.8140  -24.8330 C   0  0  0  0  0  0  0  0  0  0  0  0
   -6.1783   -2.2869  -24.0595 H   0  0  0  0  0  0  0  0  0  0  0  0
   -8.6917   -1.6762  -23.1872 C   0  0  1  0  0  0  0  0  0  0  0  0
  -10.2233   -1.5925  -23.2494 C   0  0  0  0  0  0  0  0  0  0  0  0
  -10.6614   -0.4089  -24.0952 C   0  0  0  0  0  0  0  0  0  0  0  0
  -10.1328   -0.4882  -25.4170 O   0  0  0  0  0  0  0  0  0  0  0  0
  -10.3560    0.5341  -23.6221 H   0  0  0  0  0  0  0  0  0  0  0  0
  -11.7458   -0.4169  -24.2405 H   0  0  0  0  0  0  0  0  0  0  0  0
  -10.5985   -1.5142  -22.2272 H   0  0  0  0  0  0  0  0  0  0  0  0
  -10.6106   -2.5232  -23.6845 H   0  0  0  0  0  0  0  0  0  0  0  0
   -8.2732   -2.9113  -22.5662 N   0  0  0  0  0  0  0  0  0  0  0  0
   -7.4162   -2.7611  -21.5235 C   0  0  0  0  0  0  0  0  0  0  0  0
   -6.7398   -3.6026  -20.9812 O   0  0  0  0  0  0  0  0  0  0  0  0
   -7.4165   -1.3815  -21.2206 N   0  0  0  0  0  0  0  0  0  0  0  0
   -6.6027   -0.8166  -20.1968 C   0  0  0  0  0  0  0  0  0  0  0  0
   -6.9035   -1.0716  -18.8841 C   0  0  0  0  0  0  0  0  0  0  0  0
   -6.2139   -0.5612  -17.8350 N   0  0  0  0  0  0  0  0  0  0  0  0
   -5.1839    0.2026  -18.0977 C   0  0  0  0  0  0  0  0  0  0  0  0
   -4.7384    0.5261  -19.4071 C   0  0  0  0  0  0  0  0  0  0  0  0
   -3.6044    1.3536  -19.6309 C   0  0  0  0  0  0  0  0  0  0  0  0
   -3.2051    1.6460  -20.9036 C   0  0  0  0  0  0  0  0  0  0  0  0
   -3.9313    1.1312  -21.9999 C   0  0  0  0  0  0  0  0  0  0  0  0
   -5.0185    0.3162  -21.8120 C   0  0  0  0  0  0  0  0  0  0  0  0
   -5.4656    0.0036  -20.4990 C   0  0  0  0  0  0  0  0  0  0  0  0
   -5.5202   -0.1415  -22.6649 H   0  0  0  0  0  0  0  0  0  0  0  0
   -3.5737    1.3095  -23.0091 H   0  0  0  0  0  0  0  0  0  0  0  0
   -2.3226    2.2531  -21.0801 H   0  0  0  0  0  0  0  0  0  0  0  0
   -3.0762    1.7475  -18.7681 H   0  0  0  0  0  0  0  0  0  0  0  0
   -4.6423    0.6066  -17.2445 H   0  0  0  0  0  0  0  0  0  0  0  0
   -7.7535   -1.6973  -18.6232 H   0  0  0  0  0  0  0  0  0  0  0  0
   -8.1125   -0.6514  -22.1869 C   0  0  0  0  0  0  0  0  0  0  0  0
   -8.2220    0.5474  -22.2301 O   0  0  0  0  0  0  0  0  0  0  0  0
   -8.4295   -3.8139  -22.9842 H   0  0  0  0  0  0  0  0  0  0  0  0
   -8.9079   -0.1822  -27.6119 H   0  0  0  0  0  0  0  0  0  0  0  0
   -6.5219   -0.8156  -28.0706 H   0  0  0  0  0  0  0  0  0  0  0  0
   -3.7501   -0.0827  -25.5442 H   0  0  0  0  0  0  0  0  0  0  0  0
   -3.7103   -1.3520  -24.3802 H   0  0  0  0  0  0  0  0  0  0  0  0
  1  2  1  0
  2  3  2  0
  2  4  2  0
  2  5  1  0
  5  6  2  0
  6  7  1  0
  7  8  2  0
  8  9  1  0
  9 10  2  0
 10 11  1  0
  9 12  1  0
 12 13  1  0
 13 14  1  0
 14 15  1  0
 14 16  1  0
 14 17  1  0
 13 18  1  0
 13 19  1  0
 12 20  1  1
 20 21  1  0
 21 22  2  0
 21 23  1  0
 23 24  1  0
 24 25  2  0
 25 26  1  0
 26 27  2  0
 27 28  1  0
 28 29  2  0
 29 30  1  0
 30 31  2  0
 31 32  1  0
 32 33  2  0
 32 34  1  0
 31 35  1  0
 30 36  1  0
 29 37  1  0
 27 38  1  0
 25 39  1  0
 23 40  1  0
 40 41  2  0
 20 42  1  0
  7 43  1  0
  6 44  1  0
  1 45  1  0
  1 46  1  0
 10  5  1  0
 40 12  1  0
 15  8  1  0
 33 24  1  0
 33 28  1  0
M  END
>  <cnnaffinities>  (81) 
[5.34966]

>  <score>  (81) 
5.34966

>  <index>  (81) 
83

>  <Smiles>  (81) 
N(S(=O)(=O)c1c(c(c2c(c1[H])[C@@]1(C(C(O2)([H])[H])([H])[H])N(C(=O)N(c2c(nc(c3c(c(c(c(c23)[H])[H])[H])[H])[H])[H])C1=O)[H])[H])[H])([H])[H]

>  <h>  (81) 
<NA>

>  <Training>  (81) 
True

>  <Success>  (81) 
True

>  <enamine_searched>  (81) 
False

>  <enamine_id>  (81) 
nan

$$$$

     RDKit          3D

 63 68  0  0  0  0  0  0  0  0999 V2000
   -7.9559   -3.4601  -24.1275 C   0  0  0  0  0  0  0  0  0  0  0  0
   -8.3120   -2.7648  -22.8135 C   0  0  1  0  0  0  0  0  0  0  0  0
   -7.0746   -2.5118  -21.9314 C   0  0  0  0  0  0  0  0  0  0  0  0
   -7.4368   -1.3368  -21.1708 N   0  0  0  0  0  0  0  0  0  0  0  0
   -6.6302   -0.7787  -20.1453 C   0  0  0  0  0  0  0  0  0  0  0  0
   -6.9303   -1.0388  -18.8348 C   0  0  0  0  0  0  0  0  0  0  0  0
   -6.2184   -0.5712  -17.7807 N   0  0  0  0  0  0  0  0  0  0  0  0
   -5.1868    0.1985  -18.0384 C   0  0  0  0  0  0  0  0  0  0  0  0
   -4.7634    0.5528  -19.3526 C   0  0  0  0  0  0  0  0  0  0  0  0
   -3.6398    1.3907  -19.5942 C   0  0  0  0  0  0  0  0  0  0  0  0
   -3.2850    1.7300  -20.8733 C   0  0  0  0  0  0  0  0  0  0  0  0
   -4.0389    1.2545  -21.9697 C   0  0  0  0  0  0  0  0  0  0  0  0
   -5.1201    0.4313  -21.7622 C   0  0  0  0  0  0  0  0  0  0  0  0
   -5.5095    0.0560  -20.4476 C   0  0  0  0  0  0  0  0  0  0  0  0
   -5.6892    0.0808  -22.6165 H   0  0  0  0  0  0  0  0  0  0  0  0
   -3.7761    1.5343  -22.9862 H   0  0  0  0  0  0  0  0  0  0  0  0
   -2.4291    2.3745  -21.0551 H   0  0  0  0  0  0  0  0  0  0  0  0
   -3.0831    1.7622  -18.7379 H   0  0  0  0  0  0  0  0  0  0  0  0
   -4.6205    0.5813  -17.1878 H   0  0  0  0  0  0  0  0  0  0  0  0
   -7.7938   -1.6564  -18.5929 H   0  0  0  0  0  0  0  0  0  0  0  0
   -8.4876   -0.6240  -21.7012 C   0  0  0  0  0  0  0  0  0  0  0  0
   -8.8693    0.4434  -21.2685 O   0  0  0  0  0  0  0  0  0  0  0  0
   -9.0517   -1.3921  -22.9192 C   0  0  1  0  0  0  0  0  0  0  0  0
   -8.6734   -0.6434  -24.2229 C   0  0  0  0  0  0  0  0  0  0  0  0
   -9.4317    0.5794  -24.4089 N   0  0  0  0  0  0  0  0  0  0  0  0
   -8.7293    1.7525  -24.8997 C   0  0  0  0  0  0  0  0  0  0  0  0
   -7.6818    2.2250  -23.8836 C   0  0  0  0  0  0  0  0  0  0  0  0
   -6.5067    1.9012  -23.9814 O   0  0  0  0  0  0  0  0  0  0  0  0
   -8.1741    3.0038  -22.8791 N   0  0  0  0  0  0  0  0  0  0  0  0
   -7.3058    3.5495  -21.8563 C   0  0  0  0  0  0  0  0  0  0  0  0
   -6.6019    4.8007  -22.3115 C   0  0  0  0  0  0  0  0  0  0  0  0
   -5.8778    4.6329  -23.4634 F   0  0  0  0  0  0  0  0  0  0  0  0
   -7.2536    6.1352  -22.1481 C   0  0  0  0  0  0  0  0  0  0  0  0
   -6.0402    5.7472  -21.3220 C   0  0  0  0  0  0  0  0  0  0  0  0
   -6.1960    5.5024  -20.2784 H   0  0  0  0  0  0  0  0  0  0  0  0
   -5.0679    6.1793  -21.5365 H   0  0  0  0  0  0  0  0  0  0  0  0
   -7.1319    6.8152  -22.9894 H   0  0  0  0  0  0  0  0  0  0  0  0
   -8.2228    6.1621  -21.6458 H   0  0  0  0  0  0  0  0  0  0  0  0
   -7.9017    3.8343  -20.9842 H   0  0  0  0  0  0  0  0  0  0  0  0
   -6.5950    2.7804  -21.5357 H   0  0  0  0  0  0  0  0  0  0  0  0
   -9.1711    3.0310  -22.7176 H   0  0  0  0  0  0  0  0  0  0  0  0
   -9.4877    2.5187  -25.0892 H   0  0  0  0  0  0  0  0  0  0  0  0
   -8.1978    1.5249  -25.8337 H   0  0  0  0  0  0  0  0  0  0  0  0
  -10.7907    0.6131  -24.2703 C   0  0  0  0  0  0  0  0  0  0  0  0
  -11.4785    1.5266  -24.7024 O   0  0  0  0  0  0  0  0  0  0  0  0
  -11.3822   -0.5304  -23.4979 C   0  0  0  0  0  0  0  0  0  0  0  0
  -12.7740   -0.5801  -23.4018 C   0  0  0  0  0  0  0  0  0  0  0  0
  -13.3871   -1.5058  -22.5850 C   0  0  0  0  0  0  0  0  0  0  0  0
  -12.5710   -2.3651  -21.8589 C   0  0  0  0  0  0  0  0  0  0  0  0
  -13.1546   -3.2063  -20.9920 F   0  0  0  0  0  0  0  0  0  0  0  0
  -11.1946   -2.3660  -21.9643 C   0  0  0  0  0  0  0  0  0  0  0  0
  -10.5694   -1.4578  -22.8273 C   0  0  0  0  0  0  0  0  0  0  0  0
  -10.6327   -3.0605  -21.3479 H   0  0  0  0  0  0  0  0  0  0  0  0
  -14.4637   -1.5555  -22.4625 H   0  0  0  0  0  0  0  0  0  0  0  0
  -13.3494    0.1473  -23.9634 H   0  0  0  0  0  0  0  0  0  0  0  0
   -7.6138   -0.3744  -24.1968 H   0  0  0  0  0  0  0  0  0  0  0  0
   -8.8470   -1.3012  -25.0833 H   0  0  0  0  0  0  0  0  0  0  0  0
   -6.8582   -3.3499  -21.2601 H   0  0  0  0  0  0  0  0  0  0  0  0
   -6.1738   -2.3346  -22.5410 H   0  0  0  0  0  0  0  0  0  0  0  0
   -8.9735   -3.4291  -22.2554 H   0  0  0  0  0  0  0  0  0  0  0  0
   -7.2275   -2.8732  -24.6988 H   0  0  0  0  0  0  0  0  0  0  0  0
   -7.5048   -4.4408  -23.9447 H   0  0  0  0  0  0  0  0  0  0  0  0
   -8.8347   -3.6125  -24.7631 H   0  0  0  0  0  0  0  0  0  0  0  0
  1  2  1  0
  2  3  1  0
  3  4  1  0
  4  5  1  0
  5  6  2  0
  6  7  1  0
  7  8  2  0
  8  9  1  0
  9 10  2  0
 10 11  1  0
 11 12  2  0
 12 13  1  0
 13 14  2  0
 13 15  1  0
 12 16  1  0
 11 17  1  0
 10 18  1  0
  8 19  1  0
  6 20  1  0
  4 21  1  0
 21 22  2  0
 21 23  1  0
 23 24  1  6
 24 25  1  0
 25 26  1  0
 26 27  1  0
 27 28  2  0
 27 29  1  0
 29 30  1  0
 30 31  1  0
 31 32  1  0
 31 33  1  0
 33 34  1  0
 34 35  1  0
 34 36  1  0
 33 37  1  0
 33 38  1  0
 30 39  1  0
 30 40  1  0
 29 41  1  0
 26 42  1  0
 26 43  1  0
 25 44  1  0
 44 45  2  0
 44 46  1  0
 46 47  2  0
 47 48  1  0
 48 49  2  0
 49 50  1  0
 49 51  1  0
 51 52  2  0
 51 53  1  0
 48 54  1  0
 47 55  1  0
 24 56  1  0
 24 57  1  0
  3 58  1  0
  3 59  1  0
  2 60  1  1
  1 61  1  0
  1 62  1  0
  1 63  1  0
 23  2  1  0
 34 31  1  0
 52 46  1  0
 14  5  1  0
 52 23  1  0
 14  9  1  0
M  END
>  <cnnaffinities>  (82) 
[6.40521]

>  <score>  (82) 
6.40521

>  <index>  (82) 
84

>  <Smiles>  (82) 
C([C@]1(C(N(c2c(nc(c3c(c(c(c(c23)[H])[H])[H])[H])[H])[H])C(=O)[C@]21C(N(C(C(=O)N(C(C1(F)C(C1([H])[H])([H])[H])([H])[H])[H])([H])[H])C(=O)c1c(c(c(F)c(c21)[H])[H])[H])([H])[H])([H])[H])[H])([H])([H])[H]

>  <h>  (82) 
<NA>

>  <Training>  (82) 
True

>  <Success>  (82) 
True

>  <enamine_searched>  (82) 
False

>  <enamine_id>  (82) 
nan

$$$$

     RDKit          3D

 57 62  0  0  0  0  0  0  0  0999 V2000
   -6.4304    3.5319  -22.9184 C   0  0  0  0  0  0  0  0  0  0  0  0
   -6.8060    2.5000  -23.8658 N   0  0  0  0  0  0  0  0  0  0  0  0
   -8.0926    2.5371  -24.3084 C   0  0  0  0  0  0  0  0  0  0  0  0
   -8.8387    3.4596  -24.0354 O   0  0  0  0  0  0  0  0  0  0  0  0
   -8.5353    1.4278  -25.2564 C   0  0  0  0  0  0  0  0  0  0  0  0
   -9.3034    0.3621  -24.6384 N   0  0  0  0  0  0  0  0  0  0  0  0
   -8.7498   -0.9761  -24.4569 C   0  0  0  0  0  0  0  0  0  0  0  0
   -8.9961   -1.4798  -23.0082 C   0  0  2  0  0  0  0  0  0  0  0  0
   -8.2505   -0.5486  -22.0141 C   0  0  0  0  0  0  0  0  0  0  0  0
   -8.3860    0.6505  -21.8770 O   0  0  0  0  0  0  0  0  0  0  0  0
   -7.3668   -1.3128  -21.2781 N   0  0  0  0  0  0  0  0  0  0  0  0
   -6.6078   -0.7669  -20.2189 C   0  0  0  0  0  0  0  0  0  0  0  0
   -6.9012   -1.0775  -18.9165 C   0  0  0  0  0  0  0  0  0  0  0  0
   -6.2272   -0.5957  -17.8457 N   0  0  0  0  0  0  0  0  0  0  0  0
   -5.2091    0.1971  -18.0877 C   0  0  0  0  0  0  0  0  0  0  0  0
   -4.7811    0.5779  -19.3912 C   0  0  0  0  0  0  0  0  0  0  0  0
   -3.6473    1.4067  -19.6014 C   0  0  0  0  0  0  0  0  0  0  0  0
   -3.2533    1.7346  -20.8707 C   0  0  0  0  0  0  0  0  0  0  0  0
   -3.9663    1.2455  -21.9868 C   0  0  0  0  0  0  0  0  0  0  0  0
   -5.0530    0.4225  -21.8083 C   0  0  0  0  0  0  0  0  0  0  0  0
   -5.5019    0.0875  -20.5022 C   0  0  0  0  0  0  0  0  0  0  0  0
   -5.5396   -0.0235  -22.6687 H   0  0  0  0  0  0  0  0  0  0  0  0
   -3.6384    1.5155  -22.9879 H   0  0  0  0  0  0  0  0  0  0  0  0
   -2.3790    2.3573  -21.0276 H   0  0  0  0  0  0  0  0  0  0  0  0
   -3.1015    1.7615  -18.7323 H   0  0  0  0  0  0  0  0  0  0  0  0
   -4.6637    0.5776  -17.2251 H   0  0  0  0  0  0  0  0  0  0  0  0
   -7.7420   -1.7321  -18.6913 H   0  0  0  0  0  0  0  0  0  0  0  0
   -7.4952   -2.7372  -21.4728 C   0  0  0  0  0  0  0  0  0  0  0  0
   -8.3611   -2.8568  -22.7184 C   0  0  0  0  0  0  0  0  0  0  0  0
   -7.9022   -3.7856  -23.8149 C   0  0  0  0  0  0  0  0  0  0  0  0
   -9.0962   -4.1386  -22.9849 C   0  0  0  0  0  0  0  0  0  0  0  0
  -10.0719   -4.0432  -23.4502 H   0  0  0  0  0  0  0  0  0  0  0  0
   -9.0176   -4.9381  -22.2469 H   0  0  0  0  0  0  0  0  0  0  0  0
   -8.0704   -3.4955  -24.8480 H   0  0  0  0  0  0  0  0  0  0  0  0
   -6.9919   -4.3568  -23.6526 H   0  0  0  0  0  0  0  0  0  0  0  0
   -6.5104   -3.2083  -21.5954 H   0  0  0  0  0  0  0  0  0  0  0  0
   -8.0012   -3.1955  -20.6192 H   0  0  0  0  0  0  0  0  0  0  0  0
  -10.5075   -1.3919  -22.7892 C   0  0  0  0  0  0  0  0  0  0  0  0
  -11.1870   -2.2710  -21.9415 C   0  0  0  0  0  0  0  0  0  0  0  0
  -12.5508   -2.1570  -21.7642 C   0  0  0  0  0  0  0  0  0  0  0  0
  -13.3397   -3.2267  -20.6541 Cl  0  0  0  0  0  0  0  0  0  0  0  0
  -13.2975   -1.1577  -22.3777 C   0  0  0  0  0  0  0  0  0  0  0  0
  -12.6319   -0.2547  -23.1816 C   0  0  0  0  0  0  0  0  0  0  0  0
  -11.2582   -0.3743  -23.3950 C   0  0  0  0  0  0  0  0  0  0  0  0
  -10.6230    0.6017  -24.3442 C   0  0  0  0  0  0  0  0  0  0  0  0
  -11.2696    1.5168  -24.8302 O   0  0  0  0  0  0  0  0  0  0  0  0
  -13.1393    0.5806  -23.6533 H   0  0  0  0  0  0  0  0  0  0  0  0
  -14.3695   -1.0980  -22.2222 H   0  0  0  0  0  0  0  0  0  0  0  0
  -10.6769   -3.0678  -21.4196 H   0  0  0  0  0  0  0  0  0  0  0  0
   -7.6744   -0.9565  -24.6533 H   0  0  0  0  0  0  0  0  0  0  0  0
   -9.2322   -1.6789  -25.1592 H   0  0  0  0  0  0  0  0  0  0  0  0
   -7.6889    0.9879  -25.7947 H   0  0  0  0  0  0  0  0  0  0  0  0
   -9.1996    1.9624  -25.9311 H   0  0  0  0  0  0  0  0  0  0  0  0
   -6.3464    1.6028  -23.8129 H   0  0  0  0  0  0  0  0  0  0  0  0
   -5.4192    3.3533  -22.5540 H   0  0  0  0  0  0  0  0  0  0  0  0
   -7.1347    3.5347  -22.0815 H   0  0  0  0  0  0  0  0  0  0  0  0
   -6.4826    4.5084  -23.4098 H   0  0  0  0  0  0  0  0  0  0  0  0
  1  2  1  0
  2  3  1  0
  3  4  2  0
  3  5  1  0
  5  6  1  0
  6  7  1  0
  8  7  1  6
  8  9  1  0
  9 10  2  0
  9 11  1  0
 11 12  1  0
 12 13  2  0
 13 14  1  0
 14 15  2  0
 15 16  1  0
 16 17  2  0
 17 18  1  0
 18 19  2  0
 19 20  1  0
 20 21  2  0
 20 22  1  0
 19 23  1  0
 18 24  1  0
 17 25  1  0
 15 26  1  0
 13 27  1  0
 11 28  1  0
 28 29  1  0
 29 30  1  0
 30 31  1  0
 31 32  1  0
 31 33  1  0
 30 34  1  0
 30 35  1  0
 28 36  1  0
 28 37  1  0
  8 38  1  0
 38 39  2  0
 39 40  1  0
 40 41  1  0
 40 42  2  0
 42 43  1  0
 43 44  2  0
 44 45  1  0
 45 46  2  0
 43 47  1  0
 42 48  1  0
 39 49  1  0
  7 50  1  0
  7 51  1  0
  5 52  1  0
  5 53  1  0
  2 54  1  0
  1 55  1  0
  1 56  1  0
  1 57  1  0
 45  6  1  0
 29  8  1  0
 44 38  1  0
 21 12  1  0
 31 29  1  0
 21 16  1  0
M  END
>  <cnnaffinities>  (83) 
[6.01395, 5.56133]

>  <score>  (83) 
6.01395

>  <index>  (83) 
85

>  <Smiles>  (83) 
C(N(C(=O)C(N1C([C@@]2(C(=O)N(c3c(nc(c4c(c(c(c(c34)[H])[H])[H])[H])[H])[H])C(C32C(C3([H])[H])([H])[H])([H])[H])c2c(c(Cl)c(c(c2C1=O)[H])[H])[H])([H])[H])([H])[H])[H])([H])([H])[H]

>  <h>  (83) 
<NA>

>  <Training>  (83) 
True

>  <Success>  (83) 
True

>  <enamine_searched>  (83) 
False

>  <enamine_id>  (83) 
nan

$$$$

     RDKit          3D

 43 45  0  0  0  0  0  0  0  0999 V2000
  -10.5310   -6.0792  -24.0044 C   0  0  0  0  0  0  0  0  0  0  0  0
   -9.6028   -5.0780  -23.3223 C   0  0  1  0  0  0  0  0  0  0  0  0
   -8.3415   -5.7805  -22.7828 C   0  0  0  0  0  0  0  0  0  0  0  0
   -7.0935   -4.8959  -22.8897 C   0  0  0  0  0  0  0  0  0  0  0  0
   -7.4184   -3.4913  -22.6816 N   0  0  0  0  0  0  0  0  0  0  0  0
   -6.6930   -2.7778  -21.7685 C   0  0  0  0  0  0  0  0  0  0  0  0
   -5.6208   -3.1643  -21.3294 O   0  0  0  0  0  0  0  0  0  0  0  0
   -7.3591   -1.4949  -21.2665 C   0  0  0  0  0  0  0  0  0  0  0  0
   -6.5862   -0.8192  -20.1793 C   0  0  0  0  0  0  0  0  0  0  0  0
   -6.8857   -1.0653  -18.8682 C   0  0  0  0  0  0  0  0  0  0  0  0
   -6.2078   -0.5781  -17.7961 N   0  0  0  0  0  0  0  0  0  0  0  0
   -5.1833    0.2037  -18.0568 C   0  0  0  0  0  0  0  0  0  0  0  0
   -4.7550    0.5445  -19.3681 C   0  0  0  0  0  0  0  0  0  0  0  0
   -3.6255    1.3762  -19.5967 C   0  0  0  0  0  0  0  0  0  0  0  0
   -3.2412    1.6851  -20.8755 C   0  0  0  0  0  0  0  0  0  0  0  0
   -3.9732    1.1932  -21.9772 C   0  0  0  0  0  0  0  0  0  0  0  0
   -5.0530    0.3636  -21.7813 C   0  0  0  0  0  0  0  0  0  0  0  0
   -5.4733    0.0237  -20.4667 C   0  0  0  0  0  0  0  0  0  0  0  0
   -5.5712   -0.0584  -22.6370 H   0  0  0  0  0  0  0  0  0  0  0  0
   -3.6604    1.4395  -22.9908 H   0  0  0  0  0  0  0  0  0  0  0  0
   -2.3674    2.3079  -21.0520 H   0  0  0  0  0  0  0  0  0  0  0  0
   -3.0739    1.7433  -18.7348 H   0  0  0  0  0  0  0  0  0  0  0  0
   -4.6317    0.6076  -17.2071 H   0  0  0  0  0  0  0  0  0  0  0  0
   -7.7384   -1.7026  -18.6229 H   0  0  0  0  0  0  0  0  0  0  0  0
   -8.3438   -1.7908  -20.8815 H   0  0  0  0  0  0  0  0  0  0  0  0
   -7.5401   -0.8334  -22.1205 H   0  0  0  0  0  0  0  0  0  0  0  0
   -8.3690   -2.8785  -23.6083 C   0  0  1  0  0  0  0  0  0  0  0  0
   -7.7425   -2.0411  -24.7320 C   0  0  0  0  0  0  0  0  0  0  0  0
   -7.0770   -2.6494  -25.3572 H   0  0  0  0  0  0  0  0  0  0  0  0
   -8.5604   -1.6853  -25.3690 H   0  0  0  0  0  0  0  0  0  0  0  0
   -7.1687   -1.1691  -24.4085 H   0  0  0  0  0  0  0  0  0  0  0  0
   -9.1958   -3.9692  -24.2763 C   0  0  0  0  0  0  0  0  0  0  0  0
   -8.6296   -4.3941  -25.1124 H   0  0  0  0  0  0  0  0  0  0  0  0
  -10.0390   -3.4779  -24.7520 H   0  0  0  0  0  0  0  0  0  0  0  0
   -9.0516   -2.2421  -23.0256 H   0  0  0  0  0  0  0  0  0  0  0  0
   -6.3209   -5.1583  -22.1659 H   0  0  0  0  0  0  0  0  0  0  0  0
   -6.6609   -5.0025  -23.8896 H   0  0  0  0  0  0  0  0  0  0  0  0
   -8.1587   -6.7017  -23.3518 H   0  0  0  0  0  0  0  0  0  0  0  0
   -8.5265   -6.0918  -21.7507 H   0  0  0  0  0  0  0  0  0  0  0  0
  -10.1439   -4.6174  -22.4859 H   0  0  0  0  0  0  0  0  0  0  0  0
  -11.5243   -5.6535  -24.1727 H   0  0  0  0  0  0  0  0  0  0  0  0
  -10.1281   -6.3673  -24.9824 H   0  0  0  0  0  0  0  0  0  0  0  0
  -10.6501   -6.9928  -23.4165 H   0  0  0  0  0  0  0  0  0  0  0  0
  1  2  1  0
  2  3  1  0
  3  4  1  0
  4  5  1  0
  5  6  1  0
  6  7  2  0
  6  8  1  0
  8  9  1  0
  9 10  2  0
 10 11  1  0
 11 12  2  0
 12 13  1  0
 13 14  2  0
 14 15  1  0
 15 16  2  0
 16 17  1  0
 17 18  2  0
 17 19  1  0
 16 20  1  0
 15 21  1  0
 14 22  1  0
 12 23  1  0
 10 24  1  0
  8 25  1  0
  8 26  1  0
  5 27  1  0
 27 28  1  0
 28 29  1  0
 28 30  1  0
 28 31  1  0
 27 32  1  0
 32 33  1  0
 32 34  1  0
 27 35  1  1
  4 36  1  0
  4 37  1  0
  3 38  1  0
  3 39  1  0
  2 40  1  1
  1 41  1  0
  1 42  1  0
  1 43  1  0
 32  2  1  0
 18  9  1  0
 18 13  1  0
M  END
>  <cnnaffinities>  (84) 
[4.55256, 5.12083, 4.97929, 4.79873, 4.81262]

>  <score>  (84) 
4.55256

>  <index>  (84) 
86

>  <Smiles>  (84) 
C([C@]1(C(C(N(C(=O)C(c2c(nc(c3c(c(c(c(c23)[H])[H])[H])[H])[H])[H])([H])[H])[C@@](C([H])([H])[H])(C1([H])[H])[H])([H])[H])([H])[H])[H])([H])([H])[H]

>  <h>  (84) 
<NA>

>  <Training>  (84) 
True

>  <Success>  (84) 
True

>  <enamine_searched>  (84) 
False

>  <enamine_id>  (84) 
nan

$$$$

     RDKit          3D

 59 64  0  0  0  0  0  0  0  0999 V2000
   -8.2671   -4.0826  -23.6820 C   0  0  0  0  0  0  0  0  0  0  0  0
   -8.4816   -3.1284  -22.5066 C   0  0  1  0  0  0  0  0  0  0  0  0
   -7.1521   -2.4884  -22.0598 C   0  0  0  0  0  0  0  0  0  0  0  0
   -7.5735   -1.3167  -21.3183 N   0  0  0  0  0  0  0  0  0  0  0  0
   -6.8332   -0.7558  -20.2492 C   0  0  0  0  0  0  0  0  0  0  0  0
   -7.1353   -1.0850  -18.9516 C   0  0  0  0  0  0  0  0  0  0  0  0
   -6.4107   -0.6923  -17.8749 N   0  0  0  0  0  0  0  0  0  0  0  0
   -5.3689    0.0752  -18.0780 C   0  0  0  0  0  0  0  0  0  0  0  0
   -4.9518    0.5099  -19.3664 C   0  0  0  0  0  0  0  0  0  0  0  0
   -3.8255    1.3571  -19.5454 C   0  0  0  0  0  0  0  0  0  0  0  0
   -3.4607    1.7648  -20.7989 C   0  0  0  0  0  0  0  0  0  0  0  0
   -4.1918    1.3316  -21.9281 C   0  0  0  0  0  0  0  0  0  0  0  0
   -5.2814    0.5070  -21.7803 C   0  0  0  0  0  0  0  0  0  0  0  0
   -5.6963    0.0806  -20.4924 C   0  0  0  0  0  0  0  0  0  0  0  0
   -5.8280    0.1580  -22.6515 H   0  0  0  0  0  0  0  0  0  0  0  0
   -3.8690    1.6340  -22.9212 H   0  0  0  0  0  0  0  0  0  0  0  0
   -2.6063    2.4212  -20.9357 H   0  0  0  0  0  0  0  0  0  0  0  0
   -3.2734    1.6813  -18.6664 H   0  0  0  0  0  0  0  0  0  0  0  0
   -4.7922    0.3870  -17.2025 H   0  0  0  0  0  0  0  0  0  0  0  0
   -7.9912   -1.7188  -18.7306 H   0  0  0  0  0  0  0  0  0  0  0  0
   -8.8757   -0.9617  -21.5787 C   0  0  0  0  0  0  0  0  0  0  0  0
   -9.4729   -0.0613  -21.0241 O   0  0  0  0  0  0  0  0  0  0  0  0
   -9.4238   -1.8960  -22.6970 C   0  0  1  0  0  0  0  0  0  0  0  0
   -9.1950   -1.2397  -24.0765 C   0  0  0  0  0  0  0  0  0  0  0  0
  -10.0391   -0.0803  -24.2714 N   0  0  0  0  0  0  0  0  0  0  0  0
   -9.4773    1.0589  -24.9606 C   0  0  0  0  0  0  0  0  0  0  0  0
   -8.6485    1.9282  -24.0624 C   0  0  0  0  0  0  0  0  0  0  0  0
   -8.9891    2.6111  -22.9162 C   0  0  0  0  0  0  0  0  0  0  0  0
   -7.8404    3.3714  -22.5961 C   0  0  0  0  0  0  0  0  0  0  0  0
   -6.8676    3.1597  -23.4761 N   0  0  0  0  0  0  0  0  0  0  0  0
   -7.3695    2.2736  -24.3513 N   0  0  0  0  0  0  0  0  0  0  0  0
   -6.5116    1.6393  -25.3308 C   0  0  0  0  0  0  0  0  0  0  0  0
   -5.4808    1.8925  -25.0834 H   0  0  0  0  0  0  0  0  0  0  0  0
   -6.6301    0.5497  -25.2803 H   0  0  0  0  0  0  0  0  0  0  0  0
   -6.7526    1.9837  -26.3427 H   0  0  0  0  0  0  0  0  0  0  0  0
   -7.6665    4.0438  -21.7590 H   0  0  0  0  0  0  0  0  0  0  0  0
   -9.9182    2.5201  -22.3674 H   0  0  0  0  0  0  0  0  0  0  0  0
  -10.3380    1.6246  -25.3209 H   0  0  0  0  0  0  0  0  0  0  0  0
   -8.9031    0.7120  -25.8319 H   0  0  0  0  0  0  0  0  0  0  0  0
  -11.3827   -0.1257  -24.0447 C   0  0  0  0  0  0  0  0  0  0  0  0
  -12.1718    0.6712  -24.5407 O   0  0  0  0  0  0  0  0  0  0  0  0
  -11.8292   -1.1662  -23.0749 C   0  0  0  0  0  0  0  0  0  0  0  0
  -13.1555   -1.0842  -22.6447 C   0  0  0  0  0  0  0  0  0  0  0  0
  -13.6283   -1.9300  -21.6695 C   0  0  0  0  0  0  0  0  0  0  0  0
  -12.7447   -2.8861  -21.1852 C   0  0  0  0  0  0  0  0  0  0  0  0
  -13.1690   -3.6341  -20.1570 F   0  0  0  0  0  0  0  0  0  0  0  0
  -11.4409   -3.0332  -21.6314 C   0  0  0  0  0  0  0  0  0  0  0  0
  -10.9211   -2.0835  -22.5155 C   0  0  0  0  0  0  0  0  0  0  0  0
  -10.8314   -3.8358  -21.2217 H   0  0  0  0  0  0  0  0  0  0  0  0
  -14.6305   -1.8501  -21.2488 H   0  0  0  0  0  0  0  0  0  0  0  0
  -13.7803   -0.3164  -23.0851 H   0  0  0  0  0  0  0  0  0  0  0  0
   -9.3808   -1.9854  -24.8609 H   0  0  0  0  0  0  0  0  0  0  0  0
   -8.1570   -0.9143  -24.1730 H   0  0  0  0  0  0  0  0  0  0  0  0
   -6.5382   -3.1379  -21.4295 H   0  0  0  0  0  0  0  0  0  0  0  0
   -6.5503   -2.2072  -22.9402 H   0  0  0  0  0  0  0  0  0  0  0  0
   -8.8620   -3.7017  -21.6525 H   0  0  0  0  0  0  0  0  0  0  0  0
   -7.8052   -3.5644  -24.5322 H   0  0  0  0  0  0  0  0  0  0  0  0
   -9.2008   -4.5368  -24.0287 H   0  0  0  0  0  0  0  0  0  0  0  0
   -7.5842   -4.8922  -23.3916 H   0  0  0  0  0  0  0  0  0  0  0  0
  1  2  1  0
  2  3  1  0
  3  4  1  0
  4  5  1  0
  5  6  2  0
  6  7  1  0
  7  8  2  0
  8  9  1  0
  9 10  2  0
 10 11  1  0
 11 12  2  0
 12 13  1  0
 13 14  2  0
 13 15  1  0
 12 16  1  0
 11 17  1  0
 10 18  1  0
  8 19  1  0
  6 20  1  0
  4 21  1  0
 21 22  2  0
 21 23  1  0
 23 24  1  6
 24 25  1  0
 25 26  1  0
 26 27  1  0
 27 28  2  0
 28 29  1  0
 29 30  2  0
 30 31  1  0
 31 32  1  0
 32 33  1  0
 32 34  1  0
 32 35  1  0
 29 36  1  0
 28 37  1  0
 26 38  1  0
 26 39  1  0
 25 40  1  0
 40 41  2  0
 40 42  1  0
 42 43  2  0
 43 44  1  0
 44 45  2  0
 45 46  1  0
 45 47  1  0
 47 48  2  0
 47 49  1  0
 44 50  1  0
 43 51  1  0
 24 52  1  0
 24 53  1  0
  3 54  1  0
  3 55  1  0
  2 56  1  1
  1 57  1  0
  1 58  1  0
  1 59  1  0
 23  2  1  0
 31 27  1  0
 48 42  1  0
 14  5  1  0
 48 23  1  0
 14  9  1  0
M  END
>  <cnnaffinities>  (85) 
[6.57636, 6.4672]

>  <score>  (85) 
6.57636

>  <index>  (85) 
87

>  <Smiles>  (85) 
C([C@]1(C(N(c2c(nc(c3c(c(c(c(c23)[H])[H])[H])[H])[H])[H])C(=O)[C@]21C(N(C(c1c(c(nn1C([H])([H])[H])[H])[H])([H])[H])C(=O)c1c(c(c(F)c(c21)[H])[H])[H])([H])[H])([H])[H])[H])([H])([H])[H]

>  <h>  (85) 
<NA>

>  <Training>  (85) 
True

>  <Success>  (85) 
True

>  <enamine_searched>  (85) 
False

>  <enamine_id>  (85) 
nan

$$$$

     RDKit          3D

 40 42  0  0  0  0  0  0  0  0999 V2000
   -5.5065   -2.9808  -21.3317 O   0  0  0  0  0  0  0  0  0  0  0  0
   -6.6727   -2.7722  -21.6386 C   0  0  0  0  0  0  0  0  0  0  0  0
   -7.3847   -1.4797  -21.2380 C   0  0  0  0  0  0  0  0  0  0  0  0
   -6.6249   -0.7916  -20.1569 C   0  0  0  0  0  0  0  0  0  0  0  0
   -6.9137   -1.0707  -18.8487 C   0  0  0  0  0  0  0  0  0  0  0  0
   -6.2375   -0.5862  -17.7779 N   0  0  0  0  0  0  0  0  0  0  0  0
   -5.2102    0.1878  -18.0346 C   0  0  0  0  0  0  0  0  0  0  0  0
   -4.7748    0.5362  -19.3429 C   0  0  0  0  0  0  0  0  0  0  0  0
   -3.6554    1.3771  -19.5716 C   0  0  0  0  0  0  0  0  0  0  0  0
   -3.3001    1.7280  -20.8448 C   0  0  0  0  0  0  0  0  0  0  0  0
   -4.0423    1.2511  -21.9480 C   0  0  0  0  0  0  0  0  0  0  0  0
   -5.1117    0.4108  -21.7565 C   0  0  0  0  0  0  0  0  0  0  0  0
   -5.5115    0.0441  -20.4442 C   0  0  0  0  0  0  0  0  0  0  0  0
   -5.6341    0.0019  -22.6164 H   0  0  0  0  0  0  0  0  0  0  0  0
   -3.7506    1.5345  -22.9550 H   0  0  0  0  0  0  0  0  0  0  0  0
   -2.4504    2.3834  -21.0166 H   0  0  0  0  0  0  0  0  0  0  0  0
   -3.1065    1.7519  -18.7110 H   0  0  0  0  0  0  0  0  0  0  0  0
   -4.6660    0.5798  -17.1747 H   0  0  0  0  0  0  0  0  0  0  0  0
   -7.7412   -1.7419  -18.6170 H   0  0  0  0  0  0  0  0  0  0  0  0
   -8.3905   -1.7256  -20.8752 H   0  0  0  0  0  0  0  0  0  0  0  0
   -7.5057   -0.8410  -22.1214 H   0  0  0  0  0  0  0  0  0  0  0  0
   -7.4072   -3.6819  -22.3342 N   0  0  0  0  0  0  0  0  0  0  0  0
   -6.8223   -5.0075  -22.5040 C   0  0  0  0  0  0  0  0  0  0  0  0
   -7.9520   -5.9970  -22.6932 C   0  0  0  0  0  0  0  0  0  0  0  0
   -8.7266   -5.7083  -23.9920 C   0  0  0  0  0  0  0  0  0  0  0  0
  -10.0280   -6.4815  -23.9811 C   0  0  0  0  0  0  0  0  0  0  0  0
   -9.8371   -7.7788  -23.6122 F   0  0  0  0  0  0  0  0  0  0  0  0
  -10.8372   -5.9008  -23.0441 F   0  0  0  0  0  0  0  0  0  0  0  0
  -10.5805   -6.4903  -24.9292 H   0  0  0  0  0  0  0  0  0  0  0  0
   -8.9993   -4.1947  -24.1428 C   0  0  0  0  0  0  0  0  0  0  0  0
   -8.7743   -3.4699  -22.8135 C   0  0  0  0  0  0  0  0  0  0  0  0
   -8.9624   -2.4011  -22.9326 H   0  0  0  0  0  0  0  0  0  0  0  0
   -9.5098   -3.8270  -22.0792 H   0  0  0  0  0  0  0  0  0  0  0  0
   -8.3464   -3.7631  -24.9129 H   0  0  0  0  0  0  0  0  0  0  0  0
  -10.0347   -4.0295  -24.4624 H   0  0  0  0  0  0  0  0  0  0  0  0
   -8.1536   -6.0523  -24.8618 H   0  0  0  0  0  0  0  0  0  0  0  0
   -8.6031   -5.8868  -21.8138 H   0  0  0  0  0  0  0  0  0  0  0  0
   -7.5849   -7.0245  -22.7028 H   0  0  0  0  0  0  0  0  0  0  0  0
   -6.2559   -5.2561  -21.6049 H   0  0  0  0  0  0  0  0  0  0  0  0
   -6.0922   -5.0022  -23.3242 H   0  0  0  0  0  0  0  0  0  0  0  0
  1  2  2  0
  2  3  1  0
  3  4  1  0
  4  5  2  0
  5  6  1  0
  6  7  2  0
  7  8  1  0
  8  9  2  0
  9 10  1  0
 10 11  2  0
 11 12  1  0
 12 13  2  0
 12 14  1  0
 11 15  1  0
 10 16  1  0
  9 17  1  0
  7 18  1  0
  5 19  1  0
  3 20  1  0
  3 21  1  0
  2 22  1  0
 22 23  1  0
 23 24  1  0
 24 25  1  0
 25 26  1  0
 26 27  1  0
 26 28  1  0
 26 29  1  0
 25 30  1  0
 30 31  1  0
 31 32  1  0
 31 33  1  0
 30 34  1  0
 30 35  1  0
 25 36  1  0
 24 37  1  0
 24 38  1  0
 23 39  1  0
 23 40  1  0
 13  4  1  0
 31 22  1  0
 13  8  1  0
M  END
>  <cnnaffinities>  (86) 
[4.20122, 4.22333, 4.22598, 4.80006, 4.79677, 4.38499, 4.96535, 4.60416, 4.55231, 4.55161]

>  <score>  (86) 
4.20122

>  <index>  (86) 
88

>  <Smiles>  (86) 
O=C(C(c1c(nc(c2c(c(c(c(c12)[H])[H])[H])[H])[H])[H])([H])[H])N1C(C(C(C(F)(F)[H])(C(C1([H])[H])([H])[H])[H])([H])[H])([H])[H]

>  <h>  (86) 
<NA>

>  <Training>  (86) 
True

>  <Success>  (86) 
True

>  <enamine_searched>  (86) 
False

>  <enamine_id>  (86) 
nan

$$$$

     RDKit          3D

 43 45  0  0  0  0  0  0  0  0999 V2000
   -6.1707   -4.4176  -27.1881 C   0  0  0  0  0  0  0  0  0  0  0  0
   -6.0043   -3.3826  -26.0696 C   0  0  0  0  0  0  0  0  0  0  0  0
   -5.3449   -2.1323  -26.6649 C   0  0  0  0  0  0  0  0  0  0  0  0
   -4.3651   -2.3749  -27.0893 H   0  0  0  0  0  0  0  0  0  0  0  0
   -5.9593   -1.7188  -27.4716 H   0  0  0  0  0  0  0  0  0  0  0  0
   -5.1942   -1.3360  -25.9319 H   0  0  0  0  0  0  0  0  0  0  0  0
   -5.1432   -3.9823  -24.9517 C   0  0  0  0  0  0  0  0  0  0  0  0
   -5.0886   -3.1172  -23.7003 C   0  0  0  0  0  0  0  0  0  0  0  0
   -6.4213   -2.7550  -23.2318 N   0  0  0  0  0  0  0  0  0  0  0  0
   -6.6298   -2.6883  -21.8591 C   0  0  0  0  0  0  0  0  0  0  0  0
   -6.1989   -3.5431  -21.1115 O   0  0  0  0  0  0  0  0  0  0  0  0
   -7.3880   -1.4735  -21.2782 C   0  0  0  0  0  0  0  0  0  0  0  0
   -6.5811   -0.8197  -20.1756 C   0  0  0  0  0  0  0  0  0  0  0  0
   -6.8731   -1.0466  -18.8566 C   0  0  0  0  0  0  0  0  0  0  0  0
   -6.1860   -0.5449  -17.7945 N   0  0  0  0  0  0  0  0  0  0  0  0
   -5.1568    0.2219  -18.0625 C   0  0  0  0  0  0  0  0  0  0  0  0
   -4.7228    0.5373  -19.3776 C   0  0  0  0  0  0  0  0  0  0  0  0
   -3.5919    1.3596  -19.6167 C   0  0  0  0  0  0  0  0  0  0  0  0
   -3.2014    1.6555  -20.8945 C   0  0  0  0  0  0  0  0  0  0  0  0
   -3.9433    1.1511  -21.9848 C   0  0  0  0  0  0  0  0  0  0  0  0
   -5.0322    0.3372  -21.7814 C   0  0  0  0  0  0  0  0  0  0  0  0
   -5.4545    0.0073  -20.4684 C   0  0  0  0  0  0  0  0  0  0  0  0
   -5.5403   -0.0964  -22.6397 H   0  0  0  0  0  0  0  0  0  0  0  0
   -3.5980    1.3376  -22.9966 H   0  0  0  0  0  0  0  0  0  0  0  0
   -2.3266    2.2723  -21.0831 H   0  0  0  0  0  0  0  0  0  0  0  0
   -3.0529    1.7656  -18.7647 H   0  0  0  0  0  0  0  0  0  0  0  0
   -4.6040    0.6280  -17.2135 H   0  0  0  0  0  0  0  0  0  0  0  0
   -7.7213   -1.6715  -18.5824 H   0  0  0  0  0  0  0  0  0  0  0  0
   -8.3239   -1.8510  -20.8485 H   0  0  0  0  0  0  0  0  0  0  0  0
   -7.6513   -0.7410  -22.0521 H   0  0  0  0  0  0  0  0  0  0  0  0
   -7.3106   -2.1747  -24.2198 C   0  0  0  0  0  0  0  0  0  0  0  0
   -7.3768   -3.0469  -25.4773 C   0  0  0  0  0  0  0  0  0  0  0  0
   -7.9867   -2.5461  -26.2343 H   0  0  0  0  0  0  0  0  0  0  0  0
   -7.8970   -3.9803  -25.2367 H   0  0  0  0  0  0  0  0  0  0  0  0
   -7.0186   -1.1465  -24.4910 H   0  0  0  0  0  0  0  0  0  0  0  0
   -8.3046   -2.1146  -23.7794 H   0  0  0  0  0  0  0  0  0  0  0  0
   -4.6024   -3.6511  -22.8858 H   0  0  0  0  0  0  0  0  0  0  0  0
   -4.4834   -2.2137  -23.8912 H   0  0  0  0  0  0  0  0  0  0  0  0
   -4.1290   -4.1536  -25.3285 H   0  0  0  0  0  0  0  0  0  0  0  0
   -5.5405   -4.9671  -24.6836 H   0  0  0  0  0  0  0  0  0  0  0  0
   -5.2021   -4.6905  -27.6227 H   0  0  0  0  0  0  0  0  0  0  0  0
   -6.6377   -5.3374  -26.8188 H   0  0  0  0  0  0  0  0  0  0  0  0
   -6.7991   -4.0298  -27.9980 H   0  0  0  0  0  0  0  0  0  0  0  0
  1  2  1  0
  2  3  1  0
  3  4  1  0
  3  5  1  0
  3  6  1  0
  2  7  1  0
  7  8  1  0
  8  9  1  0
  9 10  1  0
 10 11  2  0
 10 12  1  0
 12 13  1  0
 13 14  2  0
 14 15  1  0
 15 16  2  0
 16 17  1  0
 17 18  2  0
 18 19  1  0
 19 20  2  0
 20 21  1  0
 21 22  2  0
 21 23  1  0
 20 24  1  0
 19 25  1  0
 18 26  1  0
 16 27  1  0
 14 28  1  0
 12 29  1  0
 12 30  1  0
  9 31  1  0
 31 32  1  0
 32 33  1  0
 32 34  1  0
 31 35  1  0
 31 36  1  0
  8 37  1  0
  8 38  1  0
  7 39  1  0
  7 40  1  0
  1 41  1  0
  1 42  1  0
  1 43  1  0
 32  2  1  0
 22 13  1  0
 22 17  1  0
M  END
>  <cnnaffinities>  (87) 
[4.47915, 4.45449, 4.45448, 4.45448, 4.88236, 4.8822, 4.88233, 4.42436, 4.6022, 4.60232, 4.60278, 4.60256]

>  <score>  (87) 
4.47915

>  <index>  (87) 
89

>  <Smiles>  (87) 
C(C1(C([H])([H])[H])C(C(N(C(=O)C(c2c(nc(c3c(c(c(c(c23)[H])[H])[H])[H])[H])[H])([H])[H])C(C1([H])[H])([H])[H])([H])[H])([H])[H])([H])([H])[H]

>  <h>  (87) 
<NA>

>  <Training>  (87) 
True

>  <Success>  (87) 
True

>  <enamine_searched>  (87) 
False

>  <enamine_id>  (87) 
nan

$$$$

     RDKit          3D

 64 68  0  0  0  0  0  0  0  0999 V2000
   -6.8818    3.3946  -23.2091 C   0  0  0  0  0  0  0  0  0  0  0  0
   -7.5458    2.6069  -24.2237 N   0  0  0  0  0  0  0  0  0  0  0  0
   -6.9255    1.5808  -24.8378 C   0  0  0  0  0  0  0  0  0  0  0  0
   -5.7284    1.3419  -24.7276 O   0  0  0  0  0  0  0  0  0  0  0  0
   -7.8575    0.7155  -25.7010 C   0  0  0  0  0  0  0  0  0  0  0  0
   -8.8527    0.0246  -24.8894 N   0  0  0  0  0  0  0  0  0  0  0  0
   -8.5410   -1.2919  -24.3518 C   0  0  0  0  0  0  0  0  0  0  0  0
   -9.0907   -1.4955  -22.9057 C   0  0  2  0  0  0  0  0  0  0  0  0
   -8.3519   -0.5492  -21.9172 C   0  0  0  0  0  0  0  0  0  0  0  0
   -8.5221    0.6407  -21.7485 O   0  0  0  0  0  0  0  0  0  0  0  0
   -7.4317   -1.2979  -21.2188 N   0  0  0  0  0  0  0  0  0  0  0  0
   -6.6396   -0.7556  -20.1849 C   0  0  0  0  0  0  0  0  0  0  0  0
   -6.9196   -1.0753  -18.8813 C   0  0  0  0  0  0  0  0  0  0  0  0
   -6.2288   -0.6087  -17.8165 N   0  0  0  0  0  0  0  0  0  0  0  0
   -5.2121    0.1842  -18.0590 C   0  0  0  0  0  0  0  0  0  0  0  0
   -4.7955    0.5680  -19.3653 C   0  0  0  0  0  0  0  0  0  0  0  0
   -3.6618    1.3966  -19.5799 C   0  0  0  0  0  0  0  0  0  0  0  0
   -3.2880    1.7539  -20.8468 C   0  0  0  0  0  0  0  0  0  0  0  0
   -4.0361    1.3068  -21.9583 C   0  0  0  0  0  0  0  0  0  0  0  0
   -5.1287    0.4947  -21.7778 C   0  0  0  0  0  0  0  0  0  0  0  0
   -5.5361    0.1002  -20.4733 C   0  0  0  0  0  0  0  0  0  0  0  0
   -5.6840    0.1697  -22.6522 H   0  0  0  0  0  0  0  0  0  0  0  0
   -3.7666    1.5987  -22.9694 H   0  0  0  0  0  0  0  0  0  0  0  0
   -2.4208    2.3880  -21.0068 H   0  0  0  0  0  0  0  0  0  0  0  0
   -3.1074    1.7400  -18.7122 H   0  0  0  0  0  0  0  0  0  0  0  0
   -4.6570    0.5615  -17.1994 H   0  0  0  0  0  0  0  0  0  0  0  0
   -7.7607   -1.7316  -18.6548 H   0  0  0  0  0  0  0  0  0  0  0  0
   -7.3704   -2.6852  -21.5952 C   0  0  0  0  0  0  0  0  0  0  0  0
   -8.6972   -2.8893  -22.3440 C   0  0  2  0  0  0  0  0  0  0  0  0
   -8.6280   -4.0237  -23.3696 C   0  0  0  0  0  0  0  0  0  0  0  0
   -8.4943   -5.5969  -22.5532 S   0  0  0  0  0  0  0  0  0  0  0  0
   -9.6435   -5.7091  -21.6689 O   0  0  0  0  0  0  0  0  0  0  0  0
   -7.1487   -5.7565  -22.0229 O   0  0  0  0  0  0  0  0  0  0  0  0
   -8.5895   -6.6604  -23.8280 N   0  0  0  0  0  0  0  0  0  0  0  0
   -9.8762   -6.9473  -24.4531 C   0  0  0  0  0  0  0  0  0  0  0  0
   -9.7551   -7.8524  -25.0525 H   0  0  0  0  0  0  0  0  0  0  0  0
  -10.6890   -7.0963  -23.7361 H   0  0  0  0  0  0  0  0  0  0  0  0
  -10.1474   -6.1369  -25.1354 H   0  0  0  0  0  0  0  0  0  0  0  0
   -8.0367   -7.4746  -23.5902 H   0  0  0  0  0  0  0  0  0  0  0  0
   -7.7469   -3.9385  -24.0132 H   0  0  0  0  0  0  0  0  0  0  0  0
   -9.5316   -4.0531  -23.9885 H   0  0  0  0  0  0  0  0  0  0  0  0
   -9.4457   -3.1503  -21.5921 H   0  0  0  0  0  0  0  0  0  0  0  0
   -7.2914   -3.3199  -20.7142 H   0  0  0  0  0  0  0  0  0  0  0  0
   -6.4944   -2.9034  -22.2263 H   0  0  0  0  0  0  0  0  0  0  0  0
  -10.5828   -1.1926  -22.9563 C   0  0  0  0  0  0  0  0  0  0  0  0
  -11.5514   -1.8530  -22.1777 C   0  0  0  0  0  0  0  0  0  0  0  0
  -12.8775   -1.4730  -22.3009 C   0  0  0  0  0  0  0  0  0  0  0  0
  -13.8069   -2.0789  -21.5398 F   0  0  0  0  0  0  0  0  0  0  0  0
  -13.3077   -0.4868  -23.1764 C   0  0  0  0  0  0  0  0  0  0  0  0
  -12.3483    0.2198  -23.8782 C   0  0  0  0  0  0  0  0  0  0  0  0
  -11.0014   -0.1301  -23.7712 C   0  0  0  0  0  0  0  0  0  0  0  0
  -10.0077    0.6610  -24.5650 C   0  0  0  0  0  0  0  0  0  0  0  0
  -10.2331    1.8331  -24.8882 O   0  0  0  0  0  0  0  0  0  0  0  0
  -12.6277    1.0507  -24.5124 H   0  0  0  0  0  0  0  0  0  0  0  0
  -14.3701   -0.2873  -23.2748 H   0  0  0  0  0  0  0  0  0  0  0  0
  -11.2930   -2.6249  -21.4601 H   0  0  0  0  0  0  0  0  0  0  0  0
   -8.9870   -2.0486  -25.0106 H   0  0  0  0  0  0  0  0  0  0  0  0
   -7.4517   -1.4096  -24.3534 H   0  0  0  0  0  0  0  0  0  0  0  0
   -7.2413   -0.0102  -26.2385 H   0  0  0  0  0  0  0  0  0  0  0  0
   -8.3844    1.3451  -26.4256 H   0  0  0  0  0  0  0  0  0  0  0  0
   -8.5454    2.6934  -24.3631 H   0  0  0  0  0  0  0  0  0  0  0  0
   -6.5216    2.7605  -22.3885 H   0  0  0  0  0  0  0  0  0  0  0  0
   -6.0240    3.9238  -23.6320 H   0  0  0  0  0  0  0  0  0  0  0  0
   -7.5951    4.1161  -22.8052 H   0  0  0  0  0  0  0  0  0  0  0  0
  1  2  1  0
  2  3  1  0
  3  4  2  0
  3  5  1  0
  5  6  1  0
  6  7  1  0
  8  7  1  6
  8  9  1  0
  9 10  2  0
  9 11  1  0
 11 12  1  0
 12 13  2  0
 13 14  1  0
 14 15  2  0
 15 16  1  0
 16 17  2  0
 17 18  1  0
 18 19  2  0
 19 20  1  0
 20 21  2  0
 20 22  1  0
 19 23  1  0
 18 24  1  0
 17 25  1  0
 15 26  1  0
 13 27  1  0
 11 28  1  0
 28 29  1  0
 29 30  1  0
 30 31  1  0
 31 32  2  0
 31 33  2  0
 31 34  1  0
 34 35  1  0
 35 36  1  0
 35 37  1  0
 35 38  1  0
 34 39  1  0
 30 40  1  0
 30 41  1  0
 29 42  1  1
 28 43  1  0
 28 44  1  0
  8 45  1  0
 45 46  2  0
 46 47  1  0
 47 48  1  0
 47 49  2  0
 49 50  1  0
 50 51  2  0
 51 52  1  0
 52 53  2  0
 50 54  1  0
 49 55  1  0
 46 56  1  0
  7 57  1  0
  7 58  1  0
  5 59  1  0
  5 60  1  0
  2 61  1  0
  1 62  1  0
  1 63  1  0
  1 64  1  0
 52  6  1  0
 29  8  1  0
 51 45  1  0
 21 12  1  0
 21 16  1  0
M  END
>  <cnnaffinities>  (88) 
[6.68079, 6.6532]

>  <score>  (88) 
6.68079

>  <index>  (88) 
90

>  <Smiles>  (88) 
C(N(C(=O)C(N1C([C@@]2(C(=O)N(c3c(nc(c4c(c(c(c(c34)[H])[H])[H])[H])[H])[H])C([C@@]2(C(S(=O)(=O)N(C([H])([H])[H])[H])([H])[H])[H])([H])[H])c2c(c(F)c(c(c2C1=O)[H])[H])[H])([H])[H])([H])[H])[H])([H])([H])[H]

>  <h>  (88) 
<NA>

>  <Training>  (88) 
True

>  <Success>  (88) 
True

>  <enamine_searched>  (88) 
False

>  <enamine_id>  (88) 
nan

$$$$

     RDKit          3D

 66 71  0  0  0  0  0  0  0  0999 V2000
   -7.3283    3.3592  -22.0677 C   0  0  0  0  0  0  0  0  0  0  0  0
   -8.3693    2.7905  -22.8973 N   0  0  0  0  0  0  0  0  0  0  0  0
   -8.0339    2.0834  -24.0043 C   0  0  0  0  0  0  0  0  0  0  0  0
   -6.8760    1.9010  -24.3451 O   0  0  0  0  0  0  0  0  0  0  0  0
   -9.1938    1.5506  -24.8328 C   0  0  0  0  0  0  0  0  0  0  0  0
   -9.7921    0.3427  -24.3041 N   0  0  0  0  0  0  0  0  0  0  0  0
   -8.9910   -0.8597  -24.1479 C   0  0  0  0  0  0  0  0  0  0  0  0
   -9.2971   -1.6126  -22.8232 C   0  0  2  0  0  0  0  0  0  0  0  0
   -8.7494   -0.7696  -21.6331 C   0  0  0  0  0  0  0  0  0  0  0  0
   -9.2796    0.1978  -21.1275 O   0  0  0  0  0  0  0  0  0  0  0  0
   -7.5329   -1.2921  -21.2498 N   0  0  0  0  0  0  0  0  0  0  0  0
   -6.7427   -0.7450  -20.2082 C   0  0  0  0  0  0  0  0  0  0  0  0
   -7.0248   -1.0657  -18.9038 C   0  0  0  0  0  0  0  0  0  0  0  0
   -6.3024   -0.6385  -17.8408 N   0  0  0  0  0  0  0  0  0  0  0  0
   -5.2655    0.1266  -18.0821 C   0  0  0  0  0  0  0  0  0  0  0  0
   -4.8428    0.5195  -19.3839 C   0  0  0  0  0  0  0  0  0  0  0  0
   -3.7126    1.3557  -19.5948 C   0  0  0  0  0  0  0  0  0  0  0  0
   -3.3514    1.7329  -20.8590 C   0  0  0  0  0  0  0  0  0  0  0  0
   -4.1109    1.3065  -21.9694 C   0  0  0  0  0  0  0  0  0  0  0  0
   -5.2109    0.4970  -21.7924 C   0  0  0  0  0  0  0  0  0  0  0  0
   -5.6040    0.0752  -20.4922 C   0  0  0  0  0  0  0  0  0  0  0  0
   -5.8126    0.2311  -22.6560 H   0  0  0  0  0  0  0  0  0  0  0  0
   -3.8398    1.6195  -22.9729 H   0  0  0  0  0  0  0  0  0  0  0  0
   -2.4951    2.3817  -21.0177 H   0  0  0  0  0  0  0  0  0  0  0  0
   -3.1547    1.6949  -18.7270 H   0  0  0  0  0  0  0  0  0  0  0  0
   -4.6979    0.4779  -17.2205 H   0  0  0  0  0  0  0  0  0  0  0  0
   -7.8777   -1.7043  -18.6803 H   0  0  0  0  0  0  0  0  0  0  0  0
   -7.1136   -2.4354  -22.0270 C   0  0  0  0  0  0  0  0  0  0  0  0
   -8.4228   -2.9020  -22.6811 C   0  0  2  0  0  0  0  0  0  0  0  0
   -8.1151   -3.7020  -23.9404 C   0  0  0  0  0  0  0  0  0  0  0  0
   -9.3042   -4.3271  -24.4493 N   0  0  0  0  0  0  0  0  0  0  0  0
   -9.3237   -5.0997  -25.5744 C   0  0  0  0  0  0  0  0  0  0  0  0
   -8.2215   -5.1101  -26.4565 C   0  0  0  0  0  0  0  0  0  0  0  0
   -8.2390   -5.7720  -27.5974 N   0  0  0  0  0  0  0  0  0  0  0  0
   -9.3424   -6.4781  -27.8626 C   0  0  0  0  0  0  0  0  0  0  0  0
  -10.4017   -6.5148  -26.9732 C   0  0  0  0  0  0  0  0  0  0  0  0
  -10.4115   -5.8259  -25.8305 N   0  0  0  0  0  0  0  0  0  0  0  0
  -11.2808   -7.1141  -27.1975 H   0  0  0  0  0  0  0  0  0  0  0  0
   -9.3620   -7.0587  -28.7772 H   0  0  0  0  0  0  0  0  0  0  0  0
   -7.3194   -4.5548  -26.2157 H   0  0  0  0  0  0  0  0  0  0  0  0
  -10.1553   -4.3027  -23.9102 H   0  0  0  0  0  0  0  0  0  0  0  0
   -7.3398   -4.4566  -23.7406 H   0  0  0  0  0  0  0  0  0  0  0  0
   -7.6687   -3.0350  -24.6937 H   0  0  0  0  0  0  0  0  0  0  0  0
   -8.9286   -3.5668  -21.9730 H   0  0  0  0  0  0  0  0  0  0  0  0
   -6.3571   -2.1591  -22.7848 H   0  0  0  0  0  0  0  0  0  0  0  0
   -6.6571   -3.1936  -21.3798 H   0  0  0  0  0  0  0  0  0  0  0  0
  -10.8152   -1.7593  -22.7150 C   0  0  0  0  0  0  0  0  0  0  0  0
  -11.4268   -2.6992  -21.8674 C   0  0  0  0  0  0  0  0  0  0  0  0
  -12.7776   -2.5690  -21.5630 C   0  0  0  0  0  0  0  0  0  0  0  0
  -13.4999   -3.4268  -20.2461 Cl  0  0  0  0  0  0  0  0  0  0  0  0
  -13.6077   -1.6419  -22.1865 C   0  0  0  0  0  0  0  0  0  0  0  0
  -13.0326   -0.7593  -23.0654 C   0  0  0  0  0  0  0  0  0  0  0  0
  -11.6574   -0.7843  -23.2870 C   0  0  0  0  0  0  0  0  0  0  0  0
  -11.1318    0.3663  -24.0734 C   0  0  0  0  0  0  0  0  0  0  0  0
  -11.8573    1.2831  -24.4492 O   0  0  0  0  0  0  0  0  0  0  0  0
  -13.6179    0.0147  -23.5482 H   0  0  0  0  0  0  0  0  0  0  0  0
  -14.6635   -1.6167  -21.9274 H   0  0  0  0  0  0  0  0  0  0  0  0
  -10.8712   -3.5134  -21.4080 H   0  0  0  0  0  0  0  0  0  0  0  0
   -7.9495   -0.5329  -24.1565 H   0  0  0  0  0  0  0  0  0  0  0  0
   -9.1594   -1.5415  -24.9947 H   0  0  0  0  0  0  0  0  0  0  0  0
  -10.0038    2.2820  -24.8578 H   0  0  0  0  0  0  0  0  0  0  0  0
   -8.7883    1.4121  -25.8392 H   0  0  0  0  0  0  0  0  0  0  0  0
   -9.2923    2.6815  -22.5091 H   0  0  0  0  0  0  0  0  0  0  0  0
   -7.7565    4.1100  -21.3996 H   0  0  0  0  0  0  0  0  0  0  0  0
   -6.8271    2.5807  -21.4817 H   0  0  0  0  0  0  0  0  0  0  0  0
   -6.5855    3.8245  -22.7190 H   0  0  0  0  0  0  0  0  0  0  0  0
  1  2  1  0
  2  3  1  0
  3  4  2  0
  3  5  1  0
  5  6  1  0
  6  7  1  0
  8  7  1  6
  8  9  1  0
  9 10  2  0
  9 11  1  0
 11 12  1  0
 12 13  2  0
 13 14  1  0
 14 15  2  0
 15 16  1  0
 16 17  2  0
 17 18  1  0
 18 19  2  0
 19 20  1  0
 20 21  2  0
 20 22  1  0
 19 23  1  0
 18 24  1  0
 17 25  1  0
 15 26  1  0
 13 27  1  0
 11 28  1  0
 28 29  1  0
 29 30  1  0
 30 31  1  0
 31 32  1  0
 32 33  2  0
 33 34  1  0
 34 35  2  0
 35 36  1  0
 36 37  2  0
 36 38  1  0
 35 39  1  0
 33 40  1  0
 31 41  1  0
 30 42  1  0
 30 43  1  0
 29 44  1  1
 28 45  1  0
 28 46  1  0
  8 47  1  0
 47 48  2  0
 48 49  1  0
 49 50  1  0
 49 51  2  0
 51 52  1  0
 52 53  2  0
 53 54  1  0
 54 55  2  0
 52 56  1  0
 51 57  1  0
 48 58  1  0
  7 59  1  0
  7 60  1  0
  5 61  1  0
  5 62  1  0
  2 63  1  0
  1 64  1  0
  1 65  1  0
  1 66  1  0
 54  6  1  0
 29  8  1  0
 37 32  1  0
 53 47  1  0
 21 12  1  0
 21 16  1  0
M  END
>  <cnnaffinities>  (89) 
[6.47687, 6.55997, 7.04228]

>  <score>  (89) 
6.47687

>  <index>  (89) 
91

>  <Smiles>  (89) 
C(N(C(=O)C(N1C([C@@]2(C(=O)N(c3c(nc(c4c(c(c(c(c34)[H])[H])[H])[H])[H])[H])C([C@@]2(C(N(c2c(nc(c(n2)[H])[H])[H])[H])([H])[H])[H])([H])[H])c2c(c(Cl)c(c(c2C1=O)[H])[H])[H])([H])[H])([H])[H])[H])([H])([H])[H]

>  <h>  (89) 
<NA>

>  <Training>  (89) 
True

>  <Success>  (89) 
True

>  <enamine_searched>  (89) 
False

>  <enamine_id>  (89) 
nan

$$$$

     RDKit          3D

 60 65  0  0  0  0  0  0  0  0999 V2000
   -6.7838   -3.4361  -26.0925 C   0  0  0  0  0  0  0  0  0  0  0  0
   -7.0246   -2.8862  -24.8214 O   0  0  0  0  0  0  0  0  0  0  0  0
   -8.0006   -3.5927  -24.0836 C   0  0  0  0  0  0  0  0  0  0  0  0
   -8.3151   -2.8737  -22.7705 C   0  0  1  0  0  0  0  0  0  0  0  0
   -7.0420   -2.5359  -21.9747 C   0  0  0  0  0  0  0  0  0  0  0  0
   -7.3965   -1.3340  -21.2446 N   0  0  0  0  0  0  0  0  0  0  0  0
   -6.6166   -0.7889  -20.1915 C   0  0  0  0  0  0  0  0  0  0  0  0
   -6.9288   -1.0505  -18.8812 C   0  0  0  0  0  0  0  0  0  0  0  0
   -6.2297   -0.5749  -17.8205 N   0  0  0  0  0  0  0  0  0  0  0  0
   -5.2028    0.2014  -18.0720 C   0  0  0  0  0  0  0  0  0  0  0  0
   -4.7749    0.5633  -19.3823 C   0  0  0  0  0  0  0  0  0  0  0  0
   -3.6529    1.4032  -19.6119 C   0  0  0  0  0  0  0  0  0  0  0  0
   -3.2804    1.7281  -20.8881 C   0  0  0  0  0  0  0  0  0  0  0  0
   -3.9998    1.2270  -21.9917 C   0  0  0  0  0  0  0  0  0  0  0  0
   -5.0588    0.3692  -21.7925 C   0  0  0  0  0  0  0  0  0  0  0  0
   -5.4887    0.0366  -20.4820 C   0  0  0  0  0  0  0  0  0  0  0  0
   -5.5629   -0.0707  -22.6483 H   0  0  0  0  0  0  0  0  0  0  0  0
   -3.6821    1.4902  -22.9978 H   0  0  0  0  0  0  0  0  0  0  0  0
   -2.4101    2.3528  -21.0616 H   0  0  0  0  0  0  0  0  0  0  0  0
   -3.0956    1.7655  -18.7535 H   0  0  0  0  0  0  0  0  0  0  0  0
   -4.6365    0.5807  -17.2197 H   0  0  0  0  0  0  0  0  0  0  0  0
   -7.7901   -1.6722  -18.6473 H   0  0  0  0  0  0  0  0  0  0  0  0
   -8.6186   -0.7992  -21.5874 C   0  0  0  0  0  0  0  0  0  0  0  0
   -9.1793    0.0871  -20.9784 O   0  0  0  0  0  0  0  0  0  0  0  0
   -9.1541   -1.5554  -22.8289 C   0  0  1  0  0  0  0  0  0  0  0  0
   -8.8765   -0.7786  -24.1410 C   0  0  0  0  0  0  0  0  0  0  0  0
   -9.7204    0.3947  -24.2827 N   0  0  0  0  0  0  0  0  0  0  0  0
   -9.1277    1.6281  -24.7766 C   0  0  0  0  0  0  0  0  0  0  0  0
   -8.3424    2.3933  -23.7325 C   0  0  0  0  0  0  0  0  0  0  0  0
   -8.8647    3.3106  -22.7881 C   0  0  0  0  0  0  0  0  0  0  0  0
   -7.9278    3.7963  -21.9696 N   0  0  0  0  0  0  0  0  0  0  0  0
   -6.8080    3.2031  -22.3928 N   0  0  0  0  0  0  0  0  0  0  0  0
   -6.9980    2.3628  -23.4354 C   0  0  0  0  0  0  0  0  0  0  0  0
   -6.1496    1.7979  -23.8034 H   0  0  0  0  0  0  0  0  0  0  0  0
   -5.9202    3.3265  -21.9257 H   0  0  0  0  0  0  0  0  0  0  0  0
   -9.8910    3.6473  -22.6903 H   0  0  0  0  0  0  0  0  0  0  0  0
   -8.5288    1.3726  -25.6600 H   0  0  0  0  0  0  0  0  0  0  0  0
   -9.9683    2.2336  -25.1241 H   0  0  0  0  0  0  0  0  0  0  0  0
  -11.0747    0.3378  -24.1152 C   0  0  0  0  0  0  0  0  0  0  0  0
  -11.8430    1.1921  -24.5396 O   0  0  0  0  0  0  0  0  0  0  0  0
  -11.5556   -0.8366  -23.3361 C   0  0  0  0  0  0  0  0  0  0  0  0
  -12.9360   -0.9380  -23.1743 C   0  0  0  0  0  0  0  0  0  0  0  0
  -13.4558   -1.8286  -22.2661 C   0  0  0  0  0  0  0  0  0  0  0  0
  -12.5679   -2.6143  -21.5376 C   0  0  0  0  0  0  0  0  0  0  0  0
  -13.2211   -3.4572  -20.1798 Cl  0  0  0  0  0  0  0  0  0  0  0  0
  -11.2005   -2.5925  -21.7565 C   0  0  0  0  0  0  0  0  0  0  0  0
  -10.6627   -1.7056  -22.6933 C   0  0  0  0  0  0  0  0  0  0  0  0
  -10.5530   -3.2446  -21.1829 H   0  0  0  0  0  0  0  0  0  0  0  0
  -14.5189   -1.9002  -22.0635 H   0  0  0  0  0  0  0  0  0  0  0  0
  -13.5667   -0.2564  -23.7328 H   0  0  0  0  0  0  0  0  0  0  0  0
   -9.0494   -1.4779  -24.9685 H   0  0  0  0  0  0  0  0  0  0  0  0
   -7.8331   -0.4575  -24.1883 H   0  0  0  0  0  0  0  0  0  0  0  0
   -6.1919   -2.3644  -22.6447 H   0  0  0  0  0  0  0  0  0  0  0  0
   -6.7739   -3.3449  -21.2852 H   0  0  0  0  0  0  0  0  0  0  0  0
   -8.8999   -3.5883  -22.1853 H   0  0  0  0  0  0  0  0  0  0  0  0
   -7.6244   -4.6021  -23.8550 H   0  0  0  0  0  0  0  0  0  0  0  0
   -8.9222   -3.7091  -24.6798 H   0  0  0  0  0  0  0  0  0  0  0  0
   -6.0202   -2.8250  -26.5808 H   0  0  0  0  0  0  0  0  0  0  0  0
   -6.4116   -4.4699  -26.0252 H   0  0  0  0  0  0  0  0  0  0  0  0
   -7.6914   -3.4217  -26.7158 H   0  0  0  0  0  0  0  0  0  0  0  0
  1  2  1  0
  2  3  1  0
  3  4  1  0
  4  5  1  0
  5  6  1  0
  6  7  1  0
  7  8  2  0
  8  9  1  0
  9 10  2  0
 10 11  1  0
 11 12  2  0
 12 13  1  0
 13 14  2  0
 14 15  1  0
 15 16  2  0
 15 17  1  0
 14 18  1  0
 13 19  1  0
 12 20  1  0
 10 21  1  0
  8 22  1  0
  6 23  1  0
 23 24  2  0
 23 25  1  0
 25 26  1  6
 26 27  1  0
 27 28  1  0
 28 29  1  0
 29 30  1  0
 30 31  2  0
 31 32  1  0
 32 33  1  0
 33 34  1  0
 32 35  1  0
 30 36  1  0
 28 37  1  0
 28 38  1  0
 27 39  1  0
 39 40  2  0
 39 41  1  0
 41 42  2  0
 42 43  1  0
 43 44  2  0
 44 45  1  0
 44 46  1  0
 46 47  2  0
 46 48  1  0
 43 49  1  0
 42 50  1  0
 26 51  1  0
 26 52  1  0
  5 53  1  0
  5 54  1  0
  4 55  1  1
  3 56  1  0
  3 57  1  0
  1 58  1  0
  1 59  1  0
  1 60  1  0
 25  4  1  0
 33 29  2  0
 47 41  1  0
 16  7  1  0
 47 25  1  0
 16 11  1  0
M  END
>  <cnnaffinities>  (90) 
[6.43895, 6.21584, 6.46998]

>  <score>  (90) 
6.43895

>  <index>  (90) 
92

>  <Smiles>  (90) 
C(OC([C@]1(C(N(c2c(nc(c3c(c(c(c(c23)[H])[H])[H])[H])[H])[H])C(=O)[C@]21C(N(C(c1c(nn(c1[H])[H])[H])([H])[H])C(=O)c1c(c(c(Cl)c(c21)[H])[H])[H])([H])[H])([H])[H])[H])([H])[H])([H])([H])[H]

>  <h>  (90) 
<NA>

>  <Training>  (90) 
True

>  <Success>  (90) 
True

>  <enamine_searched>  (90) 
False

>  <enamine_id>  (90) 
nan

$$$$

     RDKit          3D

 62 67  0  0  0  0  0  0  0  0999 V2000
  -11.6842    3.3091  -22.6197 C   0  0  0  0  0  0  0  0  0  0  0  0
  -10.8520    2.0662  -22.2886 C   0  0  0  0  0  0  0  0  0  0  0  0
   -9.4769    2.1184  -22.7724 N   0  0  0  0  0  0  0  0  0  0  0  0
   -8.5713    2.7420  -22.0062 N   0  0  0  0  0  0  0  0  0  0  0  0
   -7.4546    2.7755  -22.7059 C   0  0  0  0  0  0  0  0  0  0  0  0
   -7.6138    2.1220  -23.9400 C   0  0  0  0  0  0  0  0  0  0  0  0
   -8.9312    1.7083  -23.9474 C   0  0  0  0  0  0  0  0  0  0  0  0
   -9.7092    0.9743  -24.9880 C   0  0  0  0  0  0  0  0  0  0  0  0
  -10.2355   -0.3070  -24.5401 N   0  0  0  0  0  0  0  0  0  0  0  0
   -9.3100   -1.3831  -24.2343 C   0  0  0  0  0  0  0  0  0  0  0  0
   -9.5156   -1.9931  -22.8218 C   0  0  2  0  0  0  0  0  0  0  0  0
   -8.9627   -1.0632  -21.7062 C   0  0  0  0  0  0  0  0  0  0  0  0
   -9.5841   -0.2393  -21.0678 O   0  0  0  0  0  0  0  0  0  0  0  0
   -7.6262   -1.3384  -21.5142 N   0  0  0  0  0  0  0  0  0  0  0  0
   -6.9307   -0.8391  -20.3912 C   0  0  0  0  0  0  0  0  0  0  0  0
   -7.3530   -1.1283  -19.1161 C   0  0  0  0  0  0  0  0  0  0  0  0
   -6.6972   -0.7316  -18.0003 N   0  0  0  0  0  0  0  0  0  0  0  0
   -5.6262    0.0081  -18.1522 C   0  0  0  0  0  0  0  0  0  0  0  0
   -5.1067    0.4113  -19.4150 C   0  0  0  0  0  0  0  0  0  0  0  0
   -4.0000    1.2911  -19.5422 C   0  0  0  0  0  0  0  0  0  0  0  0
   -3.5315    1.6386  -20.7780 C   0  0  0  0  0  0  0  0  0  0  0  0
   -4.1298    1.1125  -21.9427 C   0  0  0  0  0  0  0  0  0  0  0  0
   -5.1926    0.2436  -21.8451 C   0  0  0  0  0  0  0  0  0  0  0  0
   -5.7405   -0.0746  -20.5773 C   0  0  0  0  0  0  0  0  0  0  0  0
   -5.5992   -0.2238  -22.7361 H   0  0  0  0  0  0  0  0  0  0  0  0
   -3.7348    1.3698  -22.9204 H   0  0  0  0  0  0  0  0  0  0  0  0
   -2.6861    2.3149  -20.8743 H   0  0  0  0  0  0  0  0  0  0  0  0
   -3.5557    1.6920  -18.6368 H   0  0  0  0  0  0  0  0  0  0  0  0
   -5.1086    0.3260  -17.2472 H   0  0  0  0  0  0  0  0  0  0  0  0
   -8.2590   -1.7104  -18.9535 H   0  0  0  0  0  0  0  0  0  0  0  0
   -7.2045   -2.5514  -22.1920 C   0  0  0  0  0  0  0  0  0  0  0  0
   -8.5457   -3.1958  -22.6015 C   0  0  2  0  0  0  0  0  0  0  0  0
   -8.3835   -4.1744  -23.7529 C   0  0  0  0  0  0  0  0  0  0  0  0
   -9.3492   -4.5602  -24.0947 H   0  0  0  0  0  0  0  0  0  0  0  0
   -7.7471   -5.0187  -23.4672 H   0  0  0  0  0  0  0  0  0  0  0  0
   -7.8946   -3.6791  -24.6004 H   0  0  0  0  0  0  0  0  0  0  0  0
   -8.9092   -3.7151  -21.7087 H   0  0  0  0  0  0  0  0  0  0  0  0
   -6.5745   -2.3274  -23.0705 H   0  0  0  0  0  0  0  0  0  0  0  0
   -6.6188   -3.1885  -21.5173 H   0  0  0  0  0  0  0  0  0  0  0  0
  -11.0051   -2.2042  -22.6051 C   0  0  0  0  0  0  0  0  0  0  0  0
  -11.4666   -3.0367  -21.5830 C   0  0  0  0  0  0  0  0  0  0  0  0
  -12.7793   -2.9226  -21.1575 C   0  0  0  0  0  0  0  0  0  0  0  0
  -13.1638   -3.6232  -20.0831 F   0  0  0  0  0  0  0  0  0  0  0  0
  -13.7230   -2.0977  -21.7565 C   0  0  0  0  0  0  0  0  0  0  0  0
  -13.2948   -1.3438  -22.8299 C   0  0  0  0  0  0  0  0  0  0  0  0
  -11.9594   -1.3860  -23.2345 C   0  0  0  0  0  0  0  0  0  0  0  0
  -11.5680   -0.3844  -24.2707 C   0  0  0  0  0  0  0  0  0  0  0  0
  -12.3935    0.3918  -24.7429 O   0  0  0  0  0  0  0  0  0  0  0  0
  -13.9659   -0.6873  -23.3750 H   0  0  0  0  0  0  0  0  0  0  0  0
  -14.7269   -2.0260  -21.3454 H   0  0  0  0  0  0  0  0  0  0  0  0
  -10.7994   -3.7364  -21.0896 H   0  0  0  0  0  0  0  0  0  0  0  0
   -9.4231   -2.1832  -24.9792 H   0  0  0  0  0  0  0  0  0  0  0  0
   -8.3001   -0.9721  -24.3252 H   0  0  0  0  0  0  0  0  0  0  0  0
   -9.0651    0.8156  -25.8589 H   0  0  0  0  0  0  0  0  0  0  0  0
  -10.5810    1.5664  -25.2822 H   0  0  0  0  0  0  0  0  0  0  0  0
   -6.8752    1.9676  -24.7149 H   0  0  0  0  0  0  0  0  0  0  0  0
   -6.6048    3.2936  -22.2834 H   0  0  0  0  0  0  0  0  0  0  0  0
  -11.3489    1.1707  -22.6640 H   0  0  0  0  0  0  0  0  0  0  0  0
  -10.7322    1.9212  -21.2153 H   0  0  0  0  0  0  0  0  0  0  0  0
  -11.9856    3.3299  -23.6765 H   0  0  0  0  0  0  0  0  0  0  0  0
  -11.1233    4.2236  -22.3993 H   0  0  0  0  0  0  0  0  0  0  0  0
  -12.6004    3.3146  -22.0145 H   0  0  0  0  0  0  0  0  0  0  0  0
  1  2  1  0
  2  3  1  0
  3  4  1  0
  4  5  2  0
  5  6  1  0
  6  7  2  0
  7  8  1  0
  8  9  1  0
  9 10  1  0
 11 10  1  6
 11 12  1  0
 12 13  2  0
 12 14  1  0
 14 15  1  0
 15 16  2  0
 16 17  1  0
 17 18  2  0
 18 19  1  0
 19 20  2  0
 20 21  1  0
 21 22  2  0
 22 23  1  0
 23 24  2  0
 23 25  1  0
 22 26  1  0
 21 27  1  0
 20 28  1  0
 18 29  1  0
 16 30  1  0
 14 31  1  0
 31 32  1  0
 32 33  1  0
 33 34  1  0
 33 35  1  0
 33 36  1  0
 32 37  1  1
 31 38  1  0
 31 39  1  0
 11 40  1  0
 40 41  2  0
 41 42  1  0
 42 43  1  0
 42 44  2  0
 44 45  1  0
 45 46  2  0
 46 47  1  0
 47 48  2  0
 45 49  1  0
 44 50  1  0
 41 51  1  0
 10 52  1  0
 10 53  1  0
  8 54  1  0
  8 55  1  0
  6 56  1  0
  5 57  1  0
  2 58  1  0
  2 59  1  0
  1 60  1  0
  1 61  1  0
  1 62  1  0
  7  3  1  0
 47  9  1  0
 32 11  1  0
 46 40  1  0
 24 15  1  0
 24 19  1  0
M  END
>  <cnnaffinities>  (91) 
[6.64239]

>  <score>  (91) 
6.64239

>  <index>  (91) 
93

>  <Smiles>  (91) 
C(C(n1nc(c(c1C(N1C([C@@]2(C(=O)N(c3c(nc(c4c(c(c(c(c34)[H])[H])[H])[H])[H])[H])C([C@@]2(C([H])([H])[H])[H])([H])[H])c2c(c(F)c(c(c2C1=O)[H])[H])[H])([H])[H])([H])[H])[H])[H])([H])[H])([H])([H])[H]

>  <h>  (91) 
<NA>

>  <Training>  (91) 
True

>  <Success>  (91) 
True

>  <enamine_searched>  (91) 
False

>  <enamine_id>  (91) 
nan

$$$$

     RDKit          3D

 66 71  0  0  0  0  0  0  0  0999 V2000
   -8.4146    2.8329  -28.3277 C   0  0  0  0  0  0  0  0  0  0  0  0
   -8.5485    2.8031  -26.8810 N   0  0  0  0  0  0  0  0  0  0  0  0
   -7.7778    1.9230  -26.1756 C   0  0  0  0  0  0  0  0  0  0  0  0
   -6.8562    1.2941  -26.6683 O   0  0  0  0  0  0  0  0  0  0  0  0
   -8.1090    1.8298  -24.6786 C   0  0  0  0  0  0  0  0  0  0  0  0
   -9.0201    0.7547  -24.3321 N   0  0  0  0  0  0  0  0  0  0  0  0
   -8.5015   -0.5888  -24.1525 C   0  0  0  0  0  0  0  0  0  0  0  0
   -9.1147   -1.2758  -22.9029 C   0  0  2  0  0  0  0  0  0  0  0  0
   -8.6005   -0.6154  -21.5928 C   0  0  0  0  0  0  0  0  0  0  0  0
   -9.1342    0.2696  -20.9625 O   0  0  0  0  0  0  0  0  0  0  0  0
   -7.4247   -1.2361  -21.2344 N   0  0  0  0  0  0  0  0  0  0  0  0
   -6.6302   -0.7310  -20.1683 C   0  0  0  0  0  0  0  0  0  0  0  0
   -6.9300   -1.0584  -18.8696 C   0  0  0  0  0  0  0  0  0  0  0  0
   -6.2219   -0.6465  -17.7865 N   0  0  0  0  0  0  0  0  0  0  0  0
   -5.1943    0.1387  -17.9946 C   0  0  0  0  0  0  0  0  0  0  0  0
   -4.7797    0.5811  -19.2822 C   0  0  0  0  0  0  0  0  0  0  0  0
   -3.6693    1.4506  -19.4523 C   0  0  0  0  0  0  0  0  0  0  0  0
   -3.3034    1.8683  -20.7021 C   0  0  0  0  0  0  0  0  0  0  0  0
   -4.0288    1.4375  -21.8341 C   0  0  0  0  0  0  0  0  0  0  0  0
   -5.1043    0.5940  -21.6949 C   0  0  0  0  0  0  0  0  0  0  0  0
   -5.5113    0.1380  -20.4100 C   0  0  0  0  0  0  0  0  0  0  0  0
   -5.6479    0.2670  -22.5769 H   0  0  0  0  0  0  0  0  0  0  0  0
   -3.7297    1.7681  -22.8237 H   0  0  0  0  0  0  0  0  0  0  0  0
   -2.4561    2.5355  -20.8360 H   0  0  0  0  0  0  0  0  0  0  0  0
   -3.1259    1.7782  -18.5698 H   0  0  0  0  0  0  0  0  0  0  0  0
   -4.6271    0.4632  -17.1211 H   0  0  0  0  0  0  0  0  0  0  0  0
   -7.7871   -1.6929  -18.6547 H   0  0  0  0  0  0  0  0  0  0  0  0
   -7.1355   -2.4061  -22.0484 C   0  0  0  0  0  0  0  0  0  0  0  0
   -8.5100   -2.7152  -22.6973 C   0  0  2  0  0  0  0  0  0  0  0  0
   -8.4314   -3.7054  -23.8952 C   0  0  0  0  0  0  0  0  0  0  0  0
   -7.7503   -4.8995  -23.4977 N   0  0  0  0  0  0  0  0  0  0  0  0
   -8.2992   -6.1239  -23.7592 C   0  0  0  0  0  0  0  0  0  0  0  0
   -9.7609   -6.1550  -24.1853 C   0  0  0  0  0  0  0  0  0  0  0  0
   -9.6356   -5.9478  -24.1376 C   0  0  0  0  0  0  0  0  0  0  0  0
   -9.3598   -8.6506  -23.5522 N   0  0  0  0  0  0  0  0  0  0  0  0
   -8.1411   -8.4143  -23.5152 C   0  0  0  0  0  0  0  0  0  0  0  0
   -7.4835   -7.1206  -23.5980 N   0  0  0  0  0  0  0  0  0  0  0  0
   -7.4066   -9.2431  -23.3908 H   0  0  0  0  0  0  0  0  0  0  0  0
  -10.2422   -5.3994  -24.9925 H   0  0  0  0  0  0  0  0  0  0  0  0
  -10.5809   -5.6081  -23.4850 H   0  0  0  0  0  0  0  0  0  0  0  0
   -6.7409   -4.8778  -23.4089 H   0  0  0  0  0  0  0  0  0  0  0  0
   -7.8620   -3.2155  -24.7134 H   0  0  0  0  0  0  0  0  0  0  0  0
   -9.4162   -3.9054  -24.2696 H   0  0  0  0  0  0  0  0  0  0  0  0
   -9.1169   -3.1967  -21.9248 H   0  0  0  0  0  0  0  0  0  0  0  0
   -6.3940   -2.1796  -22.8338 H   0  0  0  0  0  0  0  0  0  0  0  0
   -6.7290   -3.2151  -21.4262 H   0  0  0  0  0  0  0  0  0  0  0  0
  -10.6194   -1.1059  -22.9791 C   0  0  0  0  0  0  0  0  0  0  0  0
  -11.4558   -1.8720  -22.1588 C   0  0  0  0  0  0  0  0  0  0  0  0
  -12.8310   -1.7586  -22.2750 C   0  0  0  0  0  0  0  0  0  0  0  0
  -13.8562   -2.7767  -21.3008 Cl  0  0  0  0  0  0  0  0  0  0  0  0
  -13.4164   -0.8234  -23.1271 C   0  0  0  0  0  0  0  0  0  0  0  0
  -12.5951    0.0335  -23.8375 C   0  0  0  0  0  0  0  0  0  0  0  0
  -11.2071   -0.0801  -23.7451 C   0  0  0  0  0  0  0  0  0  0  0  0
  -10.3636    0.9738  -24.4077 C   0  0  0  0  0  0  0  0  0  0  0  0
  -10.8390    1.9748  -24.9379 O   0  0  0  0  0  0  0  0  0  0  0  0
  -13.0123    0.8176  -24.4630 H   0  0  0  0  0  0  0  0  0  0  0  0
  -14.4968   -0.7454  -23.1845 H   0  0  0  0  0  0  0  0  0  0  0  0
  -11.0463   -2.5005  -21.3747 H   0  0  0  0  0  0  0  0  0  0  0  0
   -8.7311   -1.1858  -25.0444 H   0  0  0  0  0  0  0  0  0  0  0  0
   -7.4125   -0.5203  -24.0694 H   0  0  0  0  0  0  0  0  0  0  0  0
   -8.5444    2.7658  -24.3172 H   0  0  0  0  0  0  0  0  0  0  0  0
   -7.1656    1.6481  -24.1547 H   0  0  0  0  0  0  0  0  0  0  0  0
   -9.4762    2.9549  -26.4996 H   0  0  0  0  0  0  0  0  0  0  0  0
   -7.3753    3.0376  -28.5959 H   0  0  0  0  0  0  0  0  0  0  0  0
   -9.0501    3.6264  -28.7301 H   0  0  0  0  0  0  0  0  0  0  0  0
   -8.6950    1.8786  -28.7923 H   0  0  0  0  0  0  0  0  0  0  0  0
  1  2  1  0
  2  3  1  0
  3  4  2  0
  3  5  1  0
  5  6  1  0
  6  7  1  0
  8  7  1  6
  8  9  1  0
  9 10  2  0
  9 11  1  0
 11 12  1  0
 12 13  2  0
 13 14  1  0
 14 15  2  0
 15 16  1  0
 16 17  2  0
 17 18  1  0
 18 19  2  0
 19 20  1  0
 20 21  2  0
 20 22  1  0
 19 23  1  0
 18 24  1  0
 17 25  1  0
 15 26  1  0
 13 27  1  0
 11 28  1  0
 28 29  1  0
 29 30  1  0
 30 31  1  0
 31 32  1  0
 32 33  2  0
 33 34  1  0
 34 35  2  0
 35 36  1  0
 36 37  2  0
 36 38  1  0
 34 39  1  0
 33 40  1  0
 31 41  1  0
 30 42  1  0
 30 43  1  0
 29 44  1  1
 28 45  1  0
 28 46  1  0
  8 47  1  0
 47 48  2  0
 48 49  1  0
 49 50  1  0
 49 51  2  0
 51 52  1  0
 52 53  2  0
 53 54  1  0
 54 55  2  0
 52 56  1  0
 51 57  1  0
 48 58  1  0
  7 59  1  0
  7 60  1  0
  5 61  1  0
  5 62  1  0
  2 63  1  0
  1 64  1  0
  1 65  1  0
  1 66  1  0
 54  6  1  0
 29  8  1  0
 37 32  1  0
 53 47  1  0
 21 12  1  0
 21 16  1  0
M  END
>  <cnnaffinities>  (92) 
[6.92709]

>  <score>  (92) 
6.92709

>  <index>  (92) 
95

>  <Smiles>  (92) 
C(N(C(=O)C(N1C([C@@]2(C(=O)N(c3c(nc(c4c(c(c(c(c34)[H])[H])[H])[H])[H])[H])C([C@@]2(C(N(c2c(c(nc(n2)[H])[H])[H])[H])([H])[H])[H])([H])[H])c2c(c(Cl)c(c(c2C1=O)[H])[H])[H])([H])[H])([H])[H])[H])([H])([H])[H]

>  <h>  (92) 
<NA>

>  <Training>  (92) 
True

>  <Success>  (92) 
True

>  <enamine_searched>  (92) 
False

>  <enamine_id>  (92) 
nan

$$$$

     RDKit          3D

 66 70  0  0  0  0  0  0  0  0999 V2000
   -7.3537    3.4226  -21.9017 C   0  0  0  0  0  0  0  0  0  0  0  0
   -8.3091    2.9295  -22.8820 N   0  0  0  0  0  0  0  0  0  0  0  0
   -7.8011    2.2313  -23.9382 C   0  0  0  0  0  0  0  0  0  0  0  0
   -6.6012    2.0615  -24.0770 O   0  0  0  0  0  0  0  0  0  0  0  0
   -8.8137    1.6475  -24.9258 C   0  0  0  0  0  0  0  0  0  0  0  0
   -9.4629    0.4863  -24.3432 N   0  0  0  0  0  0  0  0  0  0  0  0
   -8.6979   -0.7414  -24.1626 C   0  0  0  0  0  0  0  0  0  0  0  0
   -9.0957   -1.4986  -22.8678 C   0  0  2  0  0  0  0  0  0  0  0  0
   -8.5729   -0.7454  -21.6216 C   0  0  0  0  0  0  0  0  0  0  0  0
   -9.0521    0.2360  -21.0893 O   0  0  0  0  0  0  0  0  0  0  0  0
   -7.4199   -1.3624  -21.1948 N   0  0  0  0  0  0  0  0  0  0  0  0
   -6.6309   -0.7881  -20.1675 C   0  0  0  0  0  0  0  0  0  0  0  0
   -6.9367   -1.0409  -18.8553 C   0  0  0  0  0  0  0  0  0  0  0  0
   -6.2321   -0.5705  -17.7989 N   0  0  0  0  0  0  0  0  0  0  0  0
   -5.1949    0.1895  -18.0590 C   0  0  0  0  0  0  0  0  0  0  0  0
   -4.7718    0.5420  -19.3732 C   0  0  0  0  0  0  0  0  0  0  0  0
   -3.6445    1.3746  -19.6061 C   0  0  0  0  0  0  0  0  0  0  0  0
   -3.2838    1.7176  -20.8811 C   0  0  0  0  0  0  0  0  0  0  0  0
   -4.0393    1.2576  -21.9825 C   0  0  0  0  0  0  0  0  0  0  0  0
   -5.1252    0.4359  -21.7856 C   0  0  0  0  0  0  0  0  0  0  0  0
   -5.5157    0.0506  -20.4730 C   0  0  0  0  0  0  0  0  0  0  0  0
   -5.6919    0.0893  -22.6445 H   0  0  0  0  0  0  0  0  0  0  0  0
   -3.7573    1.5391  -22.9926 H   0  0  0  0  0  0  0  0  0  0  0  0
   -2.4145    2.3453  -21.0547 H   0  0  0  0  0  0  0  0  0  0  0  0
   -3.0881    1.7367  -18.7460 H   0  0  0  0  0  0  0  0  0  0  0  0
   -4.6303    0.5723  -17.2080 H   0  0  0  0  0  0  0  0  0  0  0  0
   -7.7957   -1.6646  -18.6219 H   0  0  0  0  0  0  0  0  0  0  0  0
   -7.0470   -2.5357  -21.9588 C   0  0  0  0  0  0  0  0  0  0  0  0
   -8.3316   -2.8581  -22.7380 C   0  0  2  0  0  0  0  0  0  0  0  0
   -8.0644   -3.6442  -24.0215 C   0  0  0  0  0  0  0  0  0  0  0  0
   -9.2726   -4.1191  -24.5819 O   0  0  0  0  0  0  0  0  0  0  0  0
   -9.5478   -5.5034  -24.3597 C   0  0  0  0  0  0  0  0  0  0  0  0
  -11.0541   -5.6993  -24.3428 C   0  0  0  0  0  0  0  0  0  0  0  0
  -11.2995   -6.7088  -23.9883 H   0  0  0  0  0  0  0  0  0  0  0  0
  -11.5454   -4.9781  -23.6817 H   0  0  0  0  0  0  0  0  0  0  0  0
  -11.4527   -5.5921  -25.3559 H   0  0  0  0  0  0  0  0  0  0  0  0
   -8.9114   -6.3648  -25.4485 C   0  0  0  0  0  0  0  0  0  0  0  0
   -9.2964   -7.3889  -25.3765 H   0  0  0  0  0  0  0  0  0  0  0  0
   -7.8185   -6.3995  -25.3777 H   0  0  0  0  0  0  0  0  0  0  0  0
   -9.1873   -5.9644  -26.4301 H   0  0  0  0  0  0  0  0  0  0  0  0
   -9.1615   -5.7936  -23.3697 H   0  0  0  0  0  0  0  0  0  0  0  0
   -7.3561   -4.4673  -23.8200 H   0  0  0  0  0  0  0  0  0  0  0  0
   -7.5822   -2.9972  -24.7651 H   0  0  0  0  0  0  0  0  0  0  0  0
   -8.9427   -3.4999  -22.0992 H   0  0  0  0  0  0  0  0  0  0  0  0
   -6.1970   -2.3315  -22.6308 H   0  0  0  0  0  0  0  0  0  0  0  0
   -6.7468   -3.3525  -21.2906 H   0  0  0  0  0  0  0  0  0  0  0  0
  -10.6089   -1.5805  -22.8231 C   0  0  0  0  0  0  0  0  0  0  0  0
  -11.2352   -2.4372  -21.9063 C   0  0  0  0  0  0  0  0  0  0  0  0
  -12.6127   -2.4078  -21.7622 C   0  0  0  0  0  0  0  0  0  0  0  0
  -13.3834   -3.2464  -20.4464 Cl  0  0  0  0  0  0  0  0  0  0  0  0
  -13.4100   -1.6242  -22.5962 C   0  0  0  0  0  0  0  0  0  0  0  0
  -12.7986   -0.7736  -23.4930 C   0  0  0  0  0  0  0  0  0  0  0  0
  -11.4111   -0.6910  -23.5524 C   0  0  0  0  0  0  0  0  0  0  0  0
  -10.8276    0.4795  -24.2817 C   0  0  0  0  0  0  0  0  0  0  0  0
  -11.5191    1.3798  -24.7436 O   0  0  0  0  0  0  0  0  0  0  0  0
  -13.3646   -0.0932  -24.1161 H   0  0  0  0  0  0  0  0  0  0  0  0
  -14.4863   -1.6299  -22.4776 H   0  0  0  0  0  0  0  0  0  0  0  0
  -10.6492   -3.0967  -21.2766 H   0  0  0  0  0  0  0  0  0  0  0  0
   -8.8687   -1.4226  -25.0078 H   0  0  0  0  0  0  0  0  0  0  0  0
   -7.6333   -0.4886  -24.1499 H   0  0  0  0  0  0  0  0  0  0  0  0
   -9.6098    2.3541  -25.1851 H   0  0  0  0  0  0  0  0  0  0  0  0
   -8.2799    1.3833  -25.8464 H   0  0  0  0  0  0  0  0  0  0  0  0
   -9.2454    2.7265  -22.5583 H   0  0  0  0  0  0  0  0  0  0  0  0
   -6.7865    2.5806  -21.4791 H   0  0  0  0  0  0  0  0  0  0  0  0
   -6.6551    4.1182  -22.3751 H   0  0  0  0  0  0  0  0  0  0  0  0
   -7.8793    3.9807  -21.1254 H   0  0  0  0  0  0  0  0  0  0  0  0
  1  2  1  0
  2  3  1  0
  3  4  2  0
  3  5  1  0
  5  6  1  0
  6  7  1  0
  8  7  1  6
  8  9  1  0
  9 10  2  0
  9 11  1  0
 11 12  1  0
 12 13  2  0
 13 14  1  0
 14 15  2  0
 15 16  1  0
 16 17  2  0
 17 18  1  0
 18 19  2  0
 19 20  1  0
 20 21  2  0
 20 22  1  0
 19 23  1  0
 18 24  1  0
 17 25  1  0
 15 26  1  0
 13 27  1  0
 11 28  1  0
 28 29  1  0
 29 30  1  0
 30 31  1  0
 31 32  1  0
 32 33  1  0
 33 34  1  0
 33 35  1  0
 33 36  1  0
 32 37  1  0
 37 38  1  0
 37 39  1  0
 37 40  1  0
 32 41  1  0
 30 42  1  0
 30 43  1  0
 29 44  1  1
 28 45  1  0
 28 46  1  0
  8 47  1  0
 47 48  2  0
 48 49  1  0
 49 50  1  0
 49 51  2  0
 51 52  1  0
 52 53  2  0
 53 54  1  0
 54 55  2  0
 52 56  1  0
 51 57  1  0
 48 58  1  0
  7 59  1  0
  7 60  1  0
  5 61  1  0
  5 62  1  0
  2 63  1  0
  1 64  1  0
  1 65  1  0
  1 66  1  0
 54  6  1  0
 29  8  1  0
 53 47  1  0
 21 12  1  0
 21 16  1  0
M  END
>  <cnnaffinities>  (93) 
[6.45605, 6.15132]

>  <score>  (93) 
6.45605

>  <index>  (93) 
96

>  <Smiles>  (93) 
C(N(C(=O)C(N1C([C@@]2(C(=O)N(c3c(nc(c4c(c(c(c(c34)[H])[H])[H])[H])[H])[H])C([C@@]2(C(OC(C([H])([H])[H])(C([H])([H])[H])[H])([H])[H])[H])([H])[H])c2c(c(Cl)c(c(c2C1=O)[H])[H])[H])([H])[H])([H])[H])[H])([H])([H])[H]

>  <h>  (93) 
<NA>

>  <Training>  (93) 
True

>  <Success>  (93) 
True

>  <enamine_searched>  (93) 
False

>  <enamine_id>  (93) 
nan

$$$$

     RDKit          3D

 40 43  0  0  0  0  0  0  0  0999 V2000
   -9.8890   -5.2238  -22.7134 C   0  0  0  0  0  0  0  0  0  0  0  0
  -10.6320   -4.0420  -22.0797 C   0  0  2  0  0  0  0  0  0  0  0  0
  -11.4804   -3.2514  -23.0672 C   0  0  0  0  0  0  0  0  0  0  0  0
  -10.6557   -2.5921  -24.0091 O   0  0  0  0  0  0  0  0  0  0  0  0
   -9.8134   -1.5981  -23.4633 C   0  0  0  0  0  0  0  0  0  0  0  0
   -8.9003   -2.1354  -22.3572 C   0  0  1  0  0  0  0  0  0  0  0  0
   -9.6995   -3.0440  -21.4169 C   0  0  0  0  0  0  0  0  0  0  0  0
  -10.2775   -2.3426  -20.8092 H   0  0  0  0  0  0  0  0  0  0  0  0
   -8.9804   -3.5597  -20.7801 H   0  0  0  0  0  0  0  0  0  0  0  0
   -7.6581   -2.7582  -22.8165 N   0  0  0  0  0  0  0  0  0  0  0  0
   -6.6315   -2.5212  -21.9198 C   0  0  0  0  0  0  0  0  0  0  0  0
   -5.6088   -3.1434  -21.7723 O   0  0  0  0  0  0  0  0  0  0  0  0
   -7.0374   -1.3971  -21.1746 N   0  0  0  0  0  0  0  0  0  0  0  0
   -6.3276   -0.8080  -20.1006 C   0  0  0  0  0  0  0  0  0  0  0  0
   -6.7103   -1.0436  -18.8094 C   0  0  0  0  0  0  0  0  0  0  0  0
   -6.0729   -0.5277  -17.7314 N   0  0  0  0  0  0  0  0  0  0  0  0
   -5.0549    0.2726  -17.9506 C   0  0  0  0  0  0  0  0  0  0  0  0
   -4.5880    0.6351  -19.2530 C   0  0  0  0  0  0  0  0  0  0  0  0
   -3.4952    1.5165  -19.4879 C   0  0  0  0  0  0  0  0  0  0  0  0
   -3.1800    1.9007  -20.7641 C   0  0  0  0  0  0  0  0  0  0  0  0
   -3.9325    1.4357  -21.8667 C   0  0  0  0  0  0  0  0  0  0  0  0
   -4.9716    0.5641  -21.6776 C   0  0  0  0  0  0  0  0  0  0  0  0
   -5.2854    0.1209  -20.3659 C   0  0  0  0  0  0  0  0  0  0  0  0
   -5.5683    0.2156  -22.5178 H   0  0  0  0  0  0  0  0  0  0  0  0
   -3.6962    1.7608  -22.8747 H   0  0  0  0  0  0  0  0  0  0  0  0
   -2.3524    2.5818  -20.9504 H   0  0  0  0  0  0  0  0  0  0  0  0
   -2.9283    1.8955  -18.6433 H   0  0  0  0  0  0  0  0  0  0  0  0
   -4.5655    0.6982  -17.0723 H   0  0  0  0  0  0  0  0  0  0  0  0
   -7.5749   -1.6702  -18.5957 H   0  0  0  0  0  0  0  0  0  0  0  0
   -8.3504   -1.0475  -21.4479 C   0  0  0  0  0  0  0  0  0  0  0  0
   -8.9465   -0.1137  -20.9600 O   0  0  0  0  0  0  0  0  0  0  0  0
   -7.7108   -3.6917  -23.1961 H   0  0  0  0  0  0  0  0  0  0  0  0
   -9.2280   -1.2250  -24.3057 H   0  0  0  0  0  0  0  0  0  0  0  0
  -10.3947   -0.7546  -23.0625 H   0  0  0  0  0  0  0  0  0  0  0  0
  -12.0957   -2.5166  -22.5152 H   0  0  0  0  0  0  0  0  0  0  0  0
  -12.1571   -3.9195  -23.6185 H   0  0  0  0  0  0  0  0  0  0  0  0
  -11.2835   -4.4064  -21.2813 H   0  0  0  0  0  0  0  0  0  0  0  0
   -9.2337   -4.8950  -23.5234 H   0  0  0  0  0  0  0  0  0  0  0  0
  -10.5647   -5.9679  -23.1458 H   0  0  0  0  0  0  0  0  0  0  0  0
   -9.2782   -5.7538  -21.9728 H   0  0  0  0  0  0  0  0  0  0  0  0
  1  2  1  0
  2  3  1  0
  3  4  1  0
  4  5  1  0
  5  6  1  0
  6  7  1  0
  7  8  1  0
  7  9  1  0
  6 10  1  6
 10 11  1  0
 11 12  2  0
 11 13  1  0
 13 14  1  0
 14 15  2  0
 15 16  1  0
 16 17  2  0
 17 18  1  0
 18 19  2  0
 19 20  1  0
 20 21  2  0
 21 22  1  0
 22 23  2  0
 22 24  1  0
 21 25  1  0
 20 26  1  0
 19 27  1  0
 17 28  1  0
 15 29  1  0
 13 30  1  0
 30 31  2  0
 10 32  1  0
  5 33  1  0
  5 34  1  0
  3 35  1  0
  3 36  1  0
  2 37  1  1
  1 38  1  0
  1 39  1  0
  1 40  1  0
  7  2  1  0
 23 14  1  0
 30  6  1  0
 23 18  1  0
M  END
>  <cnnaffinities>  (94) 
[5.08324, 4.98518, 4.63113]

>  <score>  (94) 
5.08324

>  <index>  (94) 
97

>  <Smiles>  (94) 
C([C@@]1(C(OC([C@@]2(C1([H])[H])N(C(=O)N(c1c(nc(c3c(c(c(c(c13)[H])[H])[H])[H])[H])[H])C2=O)[H])([H])[H])([H])[H])[H])([H])([H])[H]

>  <h>  (94) 
<NA>

>  <Training>  (94) 
True

>  <Success>  (94) 
True

>  <enamine_searched>  (94) 
False

>  <enamine_id>  (94) 
nan

$$$$
