
     RDKit          3D

 66 71  0  0  0  0  0  0  0  0999 V2000
   -7.5991    3.2358  -21.8596 C   0  0  0  0  0  0  0  0  0  0  0  0
   -8.7103    2.7686  -22.6722 N   0  0  0  0  0  0  0  0  0  0  0  0
   -8.3640    1.9733  -23.7224 C   0  0  0  0  0  0  0  0  0  0  0  0
   -7.1950    1.7147  -23.9789 O   0  0  0  0  0  0  0  0  0  0  0  0
   -9.4891    1.3788  -24.5615 C   0  0  0  0  0  0  0  0  0  0  0  0
   -9.9689    0.1767  -23.9187 N   0  0  0  0  0  0  0  0  0  0  0  0
   -9.1505   -1.0254  -23.9485 C   0  0  0  0  0  0  0  0  0  0  0  0
   -9.2638   -1.8177  -22.6160 C   0  0  2  0  0  0  0  0  0  0  0  0
   -8.6636   -0.9478  -21.4847 C   0  0  0  0  0  0  0  0  0  0  0  0
   -9.1798    0.0202  -20.9586 O   0  0  0  0  0  0  0  0  0  0  0  0
   -7.4057   -1.4232  -21.1905 N   0  0  0  0  0  0  0  0  0  0  0  0
   -6.6114   -0.8302  -20.1783 C   0  0  0  0  0  0  0  0  0  0  0  0
   -6.9208   -1.0485  -18.8580 C   0  0  0  0  0  0  0  0  0  0  0  0
   -6.2117   -0.5559  -17.8168 N   0  0  0  0  0  0  0  0  0  0  0  0
   -5.1738    0.1950  -18.0902 C   0  0  0  0  0  0  0  0  0  0  0  0
   -4.7455    0.5099  -19.4097 C   0  0  0  0  0  0  0  0  0  0  0  0
   -3.6250    1.3479  -19.6483 C   0  0  0  0  0  0  0  0  0  0  0  0
   -3.2552    1.6621  -20.9267 C   0  0  0  0  0  0  0  0  0  0  0  0
   -3.9887    1.1586  -22.0217 C   0  0  0  0  0  0  0  0  0  0  0  0
   -5.0790    0.3432  -21.8186 C   0  0  0  0  0  0  0  0  0  0  0  0
   -5.4820   -0.0115  -20.5010 C   0  0  0  0  0  0  0  0  0  0  0  0
   -5.6535    0.0039  -22.6753 H   0  0  0  0  0  0  0  0  0  0  0  0
   -3.6904    1.4187  -23.0330 H   0  0  0  0  0  0  0  0  0  0  0  0
   -2.4036    2.3118  -21.1024 H   0  0  0  0  0  0  0  0  0  0  0  0
   -3.0918    1.7496  -18.7915 H   0  0  0  0  0  0  0  0  0  0  0  0
   -4.6073    0.5966  -17.2484 H   0  0  0  0  0  0  0  0  0  0  0  0
   -7.7834   -1.6599  -18.6038 H   0  0  0  0  0  0  0  0  0  0  0  0
   -7.0121   -2.5824  -21.9714 C   0  0  0  0  0  0  0  0  0  0  0  0
   -8.3441   -3.0717  -22.5745 C   0  0  2  0  0  0  0  0  0  0  0  0
   -8.1941   -3.8087  -23.9062 C   0  0  0  0  0  0  0  0  0  0  0  0
   -7.5358   -5.0813  -23.7498 N   0  0  0  0  0  0  0  0  0  0  0  0
   -7.1779   -5.8651  -24.7969 C   0  0  0  0  0  0  0  0  0  0  0  0
   -7.5788   -5.6062  -26.1218 C   0  0  0  0  0  0  0  0  0  0  0  0
   -7.1685   -6.5140  -27.0778 C   0  0  0  0  0  0  0  0  0  0  0  0
   -6.3902   -7.5684  -26.8109 N   0  0  0  0  0  0  0  0  0  0  0  0
   -6.0672   -7.6988  -25.5298 C   0  0  0  0  0  0  0  0  0  0  0  0
   -6.4205   -6.9318  -24.5039 N   0  0  0  0  0  0  0  0  0  0  0  0
   -5.4343   -8.5461  -25.2731 H   0  0  0  0  0  0  0  0  0  0  0  0
   -7.4742   -6.3958  -28.1165 H   0  0  0  0  0  0  0  0  0  0  0  0
   -8.1680   -4.7383  -26.3938 H   0  0  0  0  0  0  0  0  0  0  0  0
   -7.1215   -5.3537  -22.8740 H   0  0  0  0  0  0  0  0  0  0  0  0
   -9.1878   -3.9775  -24.3418 H   0  0  0  0  0  0  0  0  0  0  0  0
   -7.6280   -3.1845  -24.6166 H   0  0  0  0  0  0  0  0  0  0  0  0
   -8.7714   -3.7775  -21.8546 H   0  0  0  0  0  0  0  0  0  0  0  0
   -6.5508   -3.3348  -21.3251 H   0  0  0  0  0  0  0  0  0  0  0  0
   -6.2784   -2.3159  -22.7501 H   0  0  0  0  0  0  0  0  0  0  0  0
  -10.7454   -2.0534  -22.3797 C   0  0  0  0  0  0  0  0  0  0  0  0
  -11.2328   -3.1447  -21.6586 C   0  0  0  0  0  0  0  0  0  0  0  0
  -12.5820   -3.2097  -21.3618 C   0  0  0  0  0  0  0  0  0  0  0  0
  -13.1499   -4.3376  -20.1817 Cl  0  0  0  0  0  0  0  0  0  0  0  0
  -13.5126   -2.3117  -21.8680 C   0  0  0  0  0  0  0  0  0  0  0  0
  -13.0431   -1.2413  -22.5933 C   0  0  0  0  0  0  0  0  0  0  0  0
  -11.6715   -1.0704  -22.7658 C   0  0  0  0  0  0  0  0  0  0  0  0
  -11.1911    0.2229  -23.3291 C   0  0  0  0  0  0  0  0  0  0  0  0
  -11.8371    1.2637  -23.2585 O   0  0  0  0  0  0  0  0  0  0  0  0
  -13.7297   -0.5047  -22.9895 H   0  0  0  0  0  0  0  0  0  0  0  0
  -14.5575   -2.4371  -21.6062 H   0  0  0  0  0  0  0  0  0  0  0  0
  -10.5852   -3.9135  -21.2529 H   0  0  0  0  0  0  0  0  0  0  0  0
   -8.1167   -0.7102  -24.1225 H   0  0  0  0  0  0  0  0  0  0  0  0
   -9.4776   -1.6575  -24.7844 H   0  0  0  0  0  0  0  0  0  0  0  0
   -9.0934    1.1325  -25.5554 H   0  0  0  0  0  0  0  0  0  0  0  0
  -10.3401    2.0597  -24.6537 H   0  0  0  0  0  0  0  0  0  0  0  0
   -9.6066    2.6517  -22.2152 H   0  0  0  0  0  0  0  0  0  0  0  0
   -7.9293    3.9395  -21.0906 H   0  0  0  0  0  0  0  0  0  0  0  0
   -7.0641    2.3720  -21.4322 H   0  0  0  0  0  0  0  0  0  0  0  0
   -6.9112    3.7745  -22.5112 H   0  0  0  0  0  0  0  0  0  0  0  0
  1  2  1  0
  2  3  1  0
  3  4  2  0
  3  5  1  0
  5  6  1  0
  6  7  1  0
  8  7  1  6
  8  9  1  0
  9 10  2  0
  9 11  1  0
 11 12  1  0
 12 13  2  0
 13 14  1  0
 14 15  2  0
 15 16  1  0
 16 17  2  0
 17 18  1  0
 18 19  2  0
 19 20  1  0
 20 21  2  0
 20 22  1  0
 19 23  1  0
 18 24  1  0
 17 25  1  0
 15 26  1  0
 13 27  1  0
 11 28  1  0
 28 29  1  0
 29 30  1  0
 30 31  1  0
 31 32  1  0
 32 33  2  0
 33 34  1  0
 34 35  2  0
 35 36  1  0
 36 37  2  0
 36 38  1  0
 34 39  1  0
 33 40  1  0
 31 41  1  0
 30 42  1  0
 30 43  1  0
 29 44  1  1
 28 45  1  0
 28 46  1  0
  8 47  1  0
 47 48  2  0
 48 49  1  0
 49 50  1  0
 49 51  2  0
 51 52  1  0
 52 53  2  0
 53 54  1  0
 54 55  2  0
 52 56  1  0
 51 57  1  0
 48 58  1  0
  7 59  1  0
  7 60  1  0
  5 61  1  0
  5 62  1  0
  2 63  1  0
  1 64  1  0
  1 65  1  0
  1 66  1  0
 54  6  1  0
 29  8  1  0
 37 32  1  0
 53 47  1  0
 21 12  1  0
 21 16  1  0
M  END
>  <cnnaffinities>  (1) 
[6.83451, 6.96476]

>  <score>  (1) 
6.83451

>  <index>  (1) 
0

>  <Smiles>  (1) 
C(N(C(=O)C(N1C([C@@]2(C(=O)N(c3c(nc(c4c(c(c(c(c34)[H])[H])[H])[H])[H])[H])C([C@@]2(C(N(c2c(c(nc(n2)[H])[H])[H])[H])([H])[H])[H])([H])[H])c2c(c(Cl)c(c(c2C1=O)[H])[H])[H])([H])[H])([H])[H])[H])([H])([H])[H]

>  <h>  (1) 
<NA>

>  <Training>  (1) 
True

>  <Success>  (1) 
True

>  <enamine_searched>  (1) 
False

>  <enamine_id>  (1) 
nan

$$$$

     RDKit          3D

 68 73  0  0  0  0  0  0  0  0999 V2000
   -7.5008    3.2536  -21.9707 C   0  0  0  0  0  0  0  0  0  0  0  0
   -8.6243    2.7367  -22.7291 N   0  0  0  0  0  0  0  0  0  0  0  0
   -8.3429    1.9256  -23.7822 C   0  0  0  0  0  0  0  0  0  0  0  0
   -7.1920    1.6439  -24.0898 O   0  0  0  0  0  0  0  0  0  0  0  0
   -9.5361    1.3633  -24.5560 C   0  0  0  0  0  0  0  0  0  0  0  0
  -10.0186    0.1664  -23.9025 N   0  0  0  0  0  0  0  0  0  0  0  0
   -9.2012   -1.0375  -23.9277 C   0  0  0  0  0  0  0  0  0  0  0  0
   -9.3036   -1.8129  -22.5838 C   0  0  2  0  0  0  0  0  0  0  0  0
   -8.6888   -0.9237  -21.4751 C   0  0  0  0  0  0  0  0  0  0  0  0
   -9.1894    0.0565  -20.9567 O   0  0  0  0  0  0  0  0  0  0  0  0
   -7.4276   -1.3934  -21.1842 N   0  0  0  0  0  0  0  0  0  0  0  0
   -6.6364   -0.8020  -20.1719 C   0  0  0  0  0  0  0  0  0  0  0  0
   -6.9370   -1.0328  -18.8513 C   0  0  0  0  0  0  0  0  0  0  0  0
   -6.2129   -0.5561  -17.8130 N   0  0  0  0  0  0  0  0  0  0  0  0
   -5.1711    0.1874  -18.0891 C   0  0  0  0  0  0  0  0  0  0  0  0
   -4.7487    0.5088  -19.4093 C   0  0  0  0  0  0  0  0  0  0  0  0
   -3.6234    1.3398  -19.6536 C   0  0  0  0  0  0  0  0  0  0  0  0
   -3.2608    1.6562  -20.9336 C   0  0  0  0  0  0  0  0  0  0  0  0
   -4.0097    1.1659  -22.0263 C   0  0  0  0  0  0  0  0  0  0  0  0
   -5.1094    0.3634  -21.8166 C   0  0  0  0  0  0  0  0  0  0  0  0
   -5.5018    0.0063  -20.4968 C   0  0  0  0  0  0  0  0  0  0  0  0
   -5.7055    0.0416  -22.6652 H   0  0  0  0  0  0  0  0  0  0  0  0
   -3.7247    1.4333  -23.0396 H   0  0  0  0  0  0  0  0  0  0  0  0
   -2.4073    2.3044  -21.1145 H   0  0  0  0  0  0  0  0  0  0  0  0
   -3.0829    1.7349  -18.7976 H   0  0  0  0  0  0  0  0  0  0  0  0
   -4.6002    0.5802  -17.2467 H   0  0  0  0  0  0  0  0  0  0  0  0
   -7.7976   -1.6460  -18.5946 H   0  0  0  0  0  0  0  0  0  0  0  0
   -7.0259   -2.5417  -21.9715 C   0  0  0  0  0  0  0  0  0  0  0  0
   -8.3728   -3.0476  -22.5279 C   0  0  2  0  0  0  0  0  0  0  0  0
   -8.2754   -3.8301  -23.8291 C   0  0  0  0  0  0  0  0  0  0  0  0
   -7.7619   -5.1694  -23.6133 N   0  0  0  0  0  0  0  0  0  0  0  0
   -7.3071   -5.8473  -24.7531 C   0  0  0  0  0  0  0  0  0  0  0  0
   -7.5971   -5.6195  -26.1223 C   0  0  0  0  0  0  0  0  0  0  0  0
   -6.9390   -6.4752  -26.9039 N   0  0  0  0  0  0  0  0  0  0  0  0
   -6.2685   -7.2700  -26.0683 N   0  0  0  0  0  0  0  0  0  0  0  0
   -5.3319   -8.2608  -26.5467 C   0  0  0  0  0  0  0  0  0  0  0  0
   -4.3132   -7.8557  -26.5870 H   0  0  0  0  0  0  0  0  0  0  0  0
   -5.3356   -9.0886  -25.8412 H   0  0  0  0  0  0  0  0  0  0  0  0
   -5.6535   -8.6229  -27.5250 H   0  0  0  0  0  0  0  0  0  0  0  0
   -6.4585   -6.9336  -24.7687 C   0  0  0  0  0  0  0  0  0  0  0  0
   -6.0289   -7.5201  -23.9690 H   0  0  0  0  0  0  0  0  0  0  0  0
   -8.2691   -4.8804  -26.5588 H   0  0  0  0  0  0  0  0  0  0  0  0
   -7.0699   -5.2215  -22.8742 H   0  0  0  0  0  0  0  0  0  0  0  0
   -7.6530   -3.2761  -24.5512 H   0  0  0  0  0  0  0  0  0  0  0  0
   -9.2681   -3.9127  -24.2854 H   0  0  0  0  0  0  0  0  0  0  0  0
   -8.7668   -3.7238  -21.7664 H   0  0  0  0  0  0  0  0  0  0  0  0
   -6.3233   -2.2503  -22.7695 H   0  0  0  0  0  0  0  0  0  0  0  0
   -6.5187   -3.2799  -21.3401 H   0  0  0  0  0  0  0  0  0  0  0  0
  -10.7826   -2.0819  -22.3490 C   0  0  0  0  0  0  0  0  0  0  0  0
  -11.2812   -3.2038  -21.6689 C   0  0  0  0  0  0  0  0  0  0  0  0
  -12.6271   -3.2507  -21.3375 C   0  0  0  0  0  0  0  0  0  0  0  0
  -13.2202   -4.3874  -20.1712 Cl  0  0  0  0  0  0  0  0  0  0  0  0
  -13.5476   -2.3236  -21.8167 C   0  0  0  0  0  0  0  0  0  0  0  0
  -13.0679   -1.2352  -22.5071 C   0  0  0  0  0  0  0  0  0  0  0  0
  -11.7009   -1.0844  -22.7119 C   0  0  0  0  0  0  0  0  0  0  0  0
  -11.2295    0.2155  -23.2817 C   0  0  0  0  0  0  0  0  0  0  0  0
  -11.8812    1.2499  -23.2003 O   0  0  0  0  0  0  0  0  0  0  0  0
  -13.7367   -0.4677  -22.8743 H   0  0  0  0  0  0  0  0  0  0  0  0
  -14.6053   -2.4597  -21.6167 H   0  0  0  0  0  0  0  0  0  0  0  0
  -10.6456   -4.0226  -21.3458 H   0  0  0  0  0  0  0  0  0  0  0  0
   -8.1642   -0.7465  -24.1167 H   0  0  0  0  0  0  0  0  0  0  0  0
   -9.5261   -1.6739  -24.7596 H   0  0  0  0  0  0  0  0  0  0  0  0
   -9.2309    1.1403  -25.5866 H   0  0  0  0  0  0  0  0  0  0  0  0
  -10.3665    2.0712  -24.5934 H   0  0  0  0  0  0  0  0  0  0  0  0
   -9.5154    2.6472  -22.2583 H   0  0  0  0  0  0  0  0  0  0  0  0
   -6.9786    2.4429  -21.4483 H   0  0  0  0  0  0  0  0  0  0  0  0
   -6.7852    3.7126  -22.6567 H   0  0  0  0  0  0  0  0  0  0  0  0
   -7.8467    4.0094  -21.2652 H   0  0  0  0  0  0  0  0  0  0  0  0
  1  2  1  0
  2  3  1  0
  3  4  2  0
  3  5  1  0
  5  6  1  0
  6  7  1  0
  8  7  1  6
  8  9  1  0
  9 10  2  0
  9 11  1  0
 11 12  1  0
 12 13  2  0
 13 14  1  0
 14 15  2  0
 15 16  1  0
 16 17  2  0
 17 18  1  0
 18 19  2  0
 19 20  1  0
 20 21  2  0
 20 22  1  0
 19 23  1  0
 18 24  1  0
 17 25  1  0
 15 26  1  0
 13 27  1  0
 11 28  1  0
 28 29  1  0
 29 30  1  0
 30 31  1  0
 31 32  1  0
 32 33  1  0
 33 34  2  0
 34 35  1  0
 35 36  1  0
 36 37  1  0
 36 38  1  0
 36 39  1  0
 35 40  1  0
 40 41  1  0
 33 42  1  0
 31 43  1  0
 30 44  1  0
 30 45  1  0
 29 46  1  1
 28 47  1  0
 28 48  1  0
  8 49  1  0
 49 50  2  0
 50 51  1  0
 51 52  1  0
 51 53  2  0
 53 54  1  0
 54 55  2  0
 55 56  1  0
 56 57  2  0
 54 58  1  0
 53 59  1  0
 50 60  1  0
  7 61  1  0
  7 62  1  0
  5 63  1  0
  5 64  1  0
  2 65  1  0
  1 66  1  0
  1 67  1  0
  1 68  1  0
 56  6  1  0
 29  8  1  0
 40 32  2  0
 55 49  1  0
 21 12  1  0
 21 16  1  0
M  END
>  <cnnaffinities>  (2) 
[6.9897]

>  <score>  (2) 
6.9897

>  <index>  (2) 
1

>  <Smiles>  (2) 
C(N(C(=O)C(N1C([C@@]2(C(=O)N(c3c(nc(c4c(c(c(c(c34)[H])[H])[H])[H])[H])[H])C([C@@]2(C(N(c2c(nn(C([H])([H])[H])c2[H])[H])[H])([H])[H])[H])([H])[H])c2c(c(Cl)c(c(c2C1=O)[H])[H])[H])([H])[H])([H])[H])[H])([H])([H])[H]

>  <h>  (2) 
<NA>

>  <Training>  (2) 
True

>  <Success>  (2) 
True

>  <enamine_searched>  (2) 
False

>  <enamine_id>  (2) 
nan

$$$$

     RDKit          3D

 60 65  0  0  0  0  0  0  0  0999 V2000
   -6.3387    1.0812  -30.6011 C   0  0  0  0  0  0  0  0  0  0  0  0
   -6.7142    1.1934  -29.1448 C   0  0  0  0  0  0  0  0  0  0  0  0
   -6.0756    0.4345  -28.1633 C   0  0  0  0  0  0  0  0  0  0  0  0
   -6.3918    0.4959  -26.8708 N   0  0  0  0  0  0  0  0  0  0  0  0
   -7.3677    1.3452  -26.5313 C   0  0  0  0  0  0  0  0  0  0  0  0
   -7.7299    1.5078  -25.0702 C   0  0  0  0  0  0  0  0  0  0  0  0
   -8.7409    0.5800  -24.5678 N   0  0  0  0  0  0  0  0  0  0  0  0
   -8.3171   -0.7893  -24.3338 C   0  0  0  0  0  0  0  0  0  0  0  0
   -8.8311   -1.3519  -22.9824 C   0  0  2  0  0  0  0  0  0  0  0  0
   -8.2211   -0.5716  -21.8094 C   0  0  0  0  0  0  0  0  0  0  0  0
   -8.4323    0.5827  -21.4922 O   0  0  0  0  0  0  0  0  0  0  0  0
   -7.3618   -1.4024  -21.1409 N   0  0  0  0  0  0  0  0  0  0  0  0
   -6.5453   -0.8496  -20.1353 C   0  0  0  0  0  0  0  0  0  0  0  0
   -6.8622   -1.0657  -18.8223 C   0  0  0  0  0  0  0  0  0  0  0  0
   -6.1671   -0.5580  -17.7790 N   0  0  0  0  0  0  0  0  0  0  0  0
   -5.1378    0.2033  -18.0579 C   0  0  0  0  0  0  0  0  0  0  0  0
   -4.7136    0.5151  -19.3811 C   0  0  0  0  0  0  0  0  0  0  0  0
   -3.5965    1.3539  -19.6239 C   0  0  0  0  0  0  0  0  0  0  0  0
   -3.2115    1.6459  -20.9030 C   0  0  0  0  0  0  0  0  0  0  0  0
   -3.9300    1.1198  -22.0000 C   0  0  0  0  0  0  0  0  0  0  0  0
   -5.0164    0.3060  -21.7938 C   0  0  0  0  0  0  0  0  0  0  0  0
   -5.4359   -0.0177  -20.4673 C   0  0  0  0  0  0  0  0  0  0  0  0
   -5.5716   -0.0812  -22.6456 H   0  0  0  0  0  0  0  0  0  0  0  0
   -3.6161    1.3660  -23.0101 H   0  0  0  0  0  0  0  0  0  0  0  0
   -2.3540    2.2880  -21.0820 H   0  0  0  0  0  0  0  0  0  0  0  0
   -3.0690    1.7634  -18.7675 H   0  0  0  0  0  0  0  0  0  0  0  0
   -4.5824    0.6203  -17.2168 H   0  0  0  0  0  0  0  0  0  0  0  0
   -7.7321   -1.6715  -18.5781 H   0  0  0  0  0  0  0  0  0  0  0  0
   -7.1675   -2.6945  -21.7602 C   0  0  0  0  0  0  0  0  0  0  0  0
   -8.3610   -2.8117  -22.7163 C   0  0  2  0  0  0  0  0  0  0  0  0
   -8.0620   -3.6712  -23.9381 C   0  0  0  0  0  0  0  0  0  0  0  0
   -7.2096   -3.2746  -24.5032 H   0  0  0  0  0  0  0  0  0  0  0  0
   -8.9283   -3.7184  -24.6064 H   0  0  0  0  0  0  0  0  0  0  0  0
   -7.8193   -4.6891  -23.6169 H   0  0  0  0  0  0  0  0  0  0  0  0
   -9.1546   -3.3137  -22.1613 H   0  0  0  0  0  0  0  0  0  0  0  0
   -6.2165   -2.7502  -22.3090 H   0  0  0  0  0  0  0  0  0  0  0  0
   -7.1669   -3.4866  -21.0081 H   0  0  0  0  0  0  0  0  0  0  0  0
  -10.3203   -1.1279  -22.9178 C   0  0  0  0  0  0  0  0  0  0  0  0
  -11.1415   -1.9613  -22.1520 C   0  0  0  0  0  0  0  0  0  0  0  0
  -12.5025   -1.7487  -22.1418 C   0  0  0  0  0  0  0  0  0  0  0  0
  -13.2954   -2.6031  -21.4699 F   0  0  0  0  0  0  0  0  0  0  0  0
  -13.0735   -0.6475  -22.7706 C   0  0  0  0  0  0  0  0  0  0  0  0
  -12.2314    0.2626  -23.3821 C   0  0  0  0  0  0  0  0  0  0  0  0
  -10.8601    0.0327  -23.4826 C   0  0  0  0  0  0  0  0  0  0  0  0
   -9.9861    1.0258  -24.2051 C   0  0  0  0  0  0  0  0  0  0  0  0
  -10.3671    2.1673  -24.4454 O   0  0  0  0  0  0  0  0  0  0  0  0
  -12.6206    1.1901  -23.7715 H   0  0  0  0  0  0  0  0  0  0  0  0
  -14.1516   -0.5206  -22.7449 H   0  0  0  0  0  0  0  0  0  0  0  0
  -10.7363   -2.6958  -21.4647 H   0  0  0  0  0  0  0  0  0  0  0  0
   -7.2243   -0.7919  -24.3408 H   0  0  0  0  0  0  0  0  0  0  0  0
   -8.6582   -1.4416  -25.1490 H   0  0  0  0  0  0  0  0  0  0  0  0
   -6.8151    1.3499  -24.4828 H   0  0  0  0  0  0  0  0  0  0  0  0
   -8.0942    2.5226  -24.8841 H   0  0  0  0  0  0  0  0  0  0  0  0
   -7.9975    2.1075  -27.5060 C   0  0  0  0  0  0  0  0  0  0  0  0
   -7.6857    2.0411  -28.8010 N   0  0  0  0  0  0  0  0  0  0  0  0
   -8.7793    2.8038  -27.2119 H   0  0  0  0  0  0  0  0  0  0  0  0
   -5.2675   -0.2361  -28.4363 H   0  0  0  0  0  0  0  0  0  0  0  0
   -6.5105    0.0592  -30.9656 H   0  0  0  0  0  0  0  0  0  0  0  0
   -6.9476    1.7778  -31.1832 H   0  0  0  0  0  0  0  0  0  0  0  0
   -5.2762    1.3121  -30.7617 H   0  0  0  0  0  0  0  0  0  0  0  0
  1  2  1  0
  2  3  2  0
  3  4  1  0
  4  5  2  0
  5  6  1  0
  6  7  1  0
  7  8  1  0
  9  8  1  6
  9 10  1  0
 10 11  2  0
 10 12  1  0
 12 13  1  0
 13 14  2  0
 14 15  1  0
 15 16  2  0
 16 17  1  0
 17 18  2  0
 18 19  1  0
 19 20  2  0
 20 21  1  0
 21 22  2  0
 21 23  1  0
 20 24  1  0
 19 25  1  0
 18 26  1  0
 16 27  1  0
 14 28  1  0
 12 29  1  0
 29 30  1  0
 30 31  1  0
 31 32  1  0
 31 33  1  0
 31 34  1  0
 30 35  1  1
 29 36  1  0
 29 37  1  0
  9 38  1  0
 38 39  2  0
 39 40  1  0
 40 41  1  0
 40 42  2  0
 42 43  1  0
 43 44  2  0
 44 45  1  0
 45 46  2  0
 43 47  1  0
 42 48  1  0
 39 49  1  0
  8 50  1  0
  8 51  1  0
  6 52  1  0
  6 53  1  0
  5 54  1  0
 54 55  2  0
 54 56  1  0
  3 57  1  0
  1 58  1  0
  1 59  1  0
  1 60  1  0
 55  2  1  0
 45  7  1  0
 30  9  1  0
 44 38  1  0
 22 13  1  0
 22 17  1  0
M  END
>  <cnnaffinities>  (3) 
[6.70103]

>  <score>  (3) 
6.70103

>  <index>  (3) 
2

>  <Smiles>  (3) 
C(c1c(nc(C(N2C([C@@]3(C(=O)N(c4c(nc(c5c(c(c(c(c45)[H])[H])[H])[H])[H])[H])C([C@@]3(C([H])([H])[H])[H])([H])[H])c3c(c(F)c(c(c3C2=O)[H])[H])[H])([H])[H])([H])[H])c(n1)[H])[H])([H])([H])[H]

>  <h>  (3) 
<NA>

>  <Training>  (3) 
True

>  <Success>  (3) 
True

>  <enamine_searched>  (3) 
False

>  <enamine_id>  (3) 
nan

$$$$

     RDKit          3D

 66 70  0  0  0  0  0  0  0  0999 V2000
   -6.8057    3.4532  -23.0547 C   0  0  0  0  0  0  0  0  0  0  0  0
   -7.4957    2.7517  -24.1237 N   0  0  0  0  0  0  0  0  0  0  0  0
   -6.9787    1.6477  -24.7120 C   0  0  0  0  0  0  0  0  0  0  0  0
   -5.8083    1.2970  -24.6207 O   0  0  0  0  0  0  0  0  0  0  0  0
   -7.9876    0.8119  -25.5145 C   0  0  0  0  0  0  0  0  0  0  0  0
   -8.8755    0.0760  -24.6323 N   0  0  0  0  0  0  0  0  0  0  0  0
   -8.5210   -1.2818  -24.2630 C   0  0  0  0  0  0  0  0  0  0  0  0
   -8.9456   -1.6085  -22.8035 C   0  0  2  0  0  0  0  0  0  0  0  0
   -8.1603   -0.6902  -21.8426 C   0  0  0  0  0  0  0  0  0  0  0  0
   -8.2831    0.5138  -21.7079 O   0  0  0  0  0  0  0  0  0  0  0  0
   -7.2737   -1.4532  -21.1224 N   0  0  0  0  0  0  0  0  0  0  0  0
   -6.4833   -0.8761  -20.0953 C   0  0  0  0  0  0  0  0  0  0  0  0
   -6.7825   -1.1045  -18.7757 C   0  0  0  0  0  0  0  0  0  0  0  0
   -6.1015   -0.5639  -17.7365 N   0  0  0  0  0  0  0  0  0  0  0  0
   -5.0872    0.2170  -18.0176 C   0  0  0  0  0  0  0  0  0  0  0  0
   -4.6581    0.5249  -19.3391 C   0  0  0  0  0  0  0  0  0  0  0  0
   -3.5466    1.3695  -19.6024 C   0  0  0  0  0  0  0  0  0  0  0  0
   -3.1909    1.6740  -20.8870 C   0  0  0  0  0  0  0  0  0  0  0  0
   -3.9305    1.1530  -21.9709 C   0  0  0  0  0  0  0  0  0  0  0  0
   -4.9991    0.3244  -21.7438 C   0  0  0  0  0  0  0  0  0  0  0  0
   -5.3870   -0.0197  -20.4197 C   0  0  0  0  0  0  0  0  0  0  0  0
   -5.5763   -0.0403  -22.5871 H   0  0  0  0  0  0  0  0  0  0  0  0
   -3.6895    1.4236  -22.9939 H   0  0  0  0  0  0  0  0  0  0  0  0
   -2.3524    2.3368  -21.0785 H   0  0  0  0  0  0  0  0  0  0  0  0
   -3.0031    1.7840  -18.7598 H   0  0  0  0  0  0  0  0  0  0  0  0
   -4.5550    0.6540  -17.1742 H   0  0  0  0  0  0  0  0  0  0  0  0
   -7.6329   -1.7355  -18.5123 H   0  0  0  0  0  0  0  0  0  0  0  0
   -7.2211   -2.8474  -21.5086 C   0  0  0  0  0  0  0  0  0  0  0  0
   -8.4939   -3.0231  -22.3686 C   0  0  2  0  0  0  0  0  0  0  0  0
   -8.3263   -4.0374  -23.4929 C   0  0  0  0  0  0  0  0  0  0  0  0
   -8.0498   -5.2838  -22.9008 O   0  0  0  0  0  0  0  0  0  0  0  0
   -7.5280   -6.2464  -23.8006 C   0  0  0  0  0  0  0  0  0  0  0  0
   -8.0687   -7.5933  -23.3684 C   0  0  0  0  0  0  0  0  0  0  0  0
   -9.1555   -7.5887  -23.3882 H   0  0  0  0  0  0  0  0  0  0  0  0
   -7.7401   -7.8305  -22.3521 H   0  0  0  0  0  0  0  0  0  0  0  0
   -7.7262   -8.3618  -24.0586 H   0  0  0  0  0  0  0  0  0  0  0  0
   -6.0062   -6.2089  -23.7769 C   0  0  0  0  0  0  0  0  0  0  0  0
   -5.5951   -6.9530  -24.4673 H   0  0  0  0  0  0  0  0  0  0  0  0
   -5.6602   -6.4392  -22.7652 H   0  0  0  0  0  0  0  0  0  0  0  0
   -5.6159   -5.2236  -24.0557 H   0  0  0  0  0  0  0  0  0  0  0  0
   -7.8914   -6.0310  -24.8190 H   0  0  0  0  0  0  0  0  0  0  0  0
   -7.5106   -3.7354  -24.1728 H   0  0  0  0  0  0  0  0  0  0  0  0
   -9.2416   -4.1054  -24.1062 H   0  0  0  0  0  0  0  0  0  0  0  0
   -9.2530   -3.4286  -21.7030 H   0  0  0  0  0  0  0  0  0  0  0  0
   -6.2952   -3.0837  -22.0581 H   0  0  0  0  0  0  0  0  0  0  0  0
   -7.2379   -3.4800  -20.6177 H   0  0  0  0  0  0  0  0  0  0  0  0
  -10.4339   -1.3088  -22.6835 C   0  0  0  0  0  0  0  0  0  0  0  0
  -11.3561   -2.1066  -21.9869 C   0  0  0  0  0  0  0  0  0  0  0  0
  -12.6882   -1.7239  -21.9400 C   0  0  0  0  0  0  0  0  0  0  0  0
  -13.8403   -2.7492  -21.1311 Cl  0  0  0  0  0  0  0  0  0  0  0  0
  -13.1326   -0.5329  -22.5078 C   0  0  0  0  0  0  0  0  0  0  0  0
  -12.2217    0.2829  -23.1447 C   0  0  0  0  0  0  0  0  0  0  0  0
  -10.8976   -0.1321  -23.2964 C   0  0  0  0  0  0  0  0  0  0  0  0
   -9.9947    0.6924  -24.1738 C   0  0  0  0  0  0  0  0  0  0  0  0
  -10.2601    1.8628  -24.4625 O   0  0  0  0  0  0  0  0  0  0  0  0
  -12.5407    1.2386  -23.5431 H   0  0  0  0  0  0  0  0  0  0  0  0
  -14.1836   -0.2704  -22.4627 H   0  0  0  0  0  0  0  0  0  0  0  0
  -11.0704   -3.0354  -21.4976 H   0  0  0  0  0  0  0  0  0  0  0  0
   -7.4297   -1.3687  -24.3572 H   0  0  0  0  0  0  0  0  0  0  0  0
   -9.0258   -1.9741  -24.9517 H   0  0  0  0  0  0  0  0  0  0  0  0
   -7.4171    0.0980  -26.1141 H   0  0  0  0  0  0  0  0  0  0  0  0
   -8.6058    1.4363  -26.1683 H   0  0  0  0  0  0  0  0  0  0  0  0
   -8.4980    2.8777  -24.2122 H   0  0  0  0  0  0  0  0  0  0  0  0
   -6.4836    2.7547  -22.2671 H   0  0  0  0  0  0  0  0  0  0  0  0
   -7.5002    4.1742  -22.6159 H   0  0  0  0  0  0  0  0  0  0  0  0
   -5.9366    4.0029  -23.4305 H   0  0  0  0  0  0  0  0  0  0  0  0
  1  2  1  0
  2  3  1  0
  3  4  2  0
  3  5  1  0
  5  6  1  0
  6  7  1  0
  8  7  1  6
  8  9  1  0
  9 10  2  0
  9 11  1  0
 11 12  1  0
 12 13  2  0
 13 14  1  0
 14 15  2  0
 15 16  1  0
 16 17  2  0
 17 18  1  0
 18 19  2  0
 19 20  1  0
 20 21  2  0
 20 22  1  0
 19 23  1  0
 18 24  1  0
 17 25  1  0
 15 26  1  0
 13 27  1  0
 11 28  1  0
 28 29  1  0
 29 30  1  0
 30 31  1  0
 31 32  1  0
 32 33  1  0
 33 34  1  0
 33 35  1  0
 33 36  1  0
 32 37  1  0
 37 38  1  0
 37 39  1  0
 37 40  1  0
 32 41  1  0
 30 42  1  0
 30 43  1  0
 29 44  1  1
 28 45  1  0
 28 46  1  0
  8 47  1  0
 47 48  2  0
 48 49  1  0
 49 50  1  0
 49 51  2  0
 51 52  1  0
 52 53  2  0
 53 54  1  0
 54 55  2  0
 52 56  1  0
 51 57  1  0
 48 58  1  0
  7 59  1  0
  7 60  1  0
  5 61  1  0
  5 62  1  0
  2 63  1  0
  1 64  1  0
  1 65  1  0
  1 66  1  0
 54  6  1  0
 29  8  1  0
 53 47  1  0
 21 12  1  0
 21 16  1  0
M  END
>  <cnnaffinities>  (4) 
[6.9267]

>  <score>  (4) 
6.9267

>  <index>  (4) 
3

>  <Smiles>  (4) 
C(N(C(=O)C(N1C([C@@]2(C(=O)N(c3c(nc(c4c(c(c(c(c34)[H])[H])[H])[H])[H])[H])C([C@@]2(C(OC(C([H])([H])[H])(C([H])([H])[H])[H])([H])[H])[H])([H])[H])c2c(c(Cl)c(c(c2C1=O)[H])[H])[H])([H])[H])([H])[H])[H])([H])([H])[H]

>  <h>  (4) 
<NA>

>  <Training>  (4) 
True

>  <Success>  (4) 
True

>  <enamine_searched>  (4) 
False

>  <enamine_id>  (4) 
nan

$$$$

     RDKit          3D

 59 64  0  0  0  0  0  0  0  0999 V2000
  -10.3656   -2.4703  -22.2797 C   0  0  0  0  0  0  0  0  0  0  0  0
   -9.0963   -1.7696  -22.7948 C   0  0  1  0  0  0  0  0  0  0  0  0
   -8.5595   -0.7879  -21.7245 C   0  0  0  0  0  0  0  0  0  0  0  0
   -7.3755   -1.4356  -21.1999 N   0  0  0  0  0  0  0  0  0  0  0  0
   -6.5703   -0.8549  -20.1814 C   0  0  0  0  0  0  0  0  0  0  0  0
   -6.8934   -1.0539  -18.8643 C   0  0  0  0  0  0  0  0  0  0  0  0
   -6.2048   -0.5351  -17.8201 N   0  0  0  0  0  0  0  0  0  0  0  0
   -5.1658    0.2157  -18.0855 C   0  0  0  0  0  0  0  0  0  0  0  0
   -4.7222    0.5163  -19.4050 C   0  0  0  0  0  0  0  0  0  0  0  0
   -3.5939    1.3472  -19.6402 C   0  0  0  0  0  0  0  0  0  0  0  0
   -3.2064    1.6365  -20.9190 C   0  0  0  0  0  0  0  0  0  0  0  0
   -3.9310    1.1134  -22.0147 C   0  0  0  0  0  0  0  0  0  0  0  0
   -5.0207    0.3002  -21.8168 C   0  0  0  0  0  0  0  0  0  0  0  0
   -5.4425   -0.0248  -20.4934 C   0  0  0  0  0  0  0  0  0  0  0  0
   -5.5715   -0.0997  -22.6685 H   0  0  0  0  0  0  0  0  0  0  0  0
   -3.6171    1.3597  -23.0237 H   0  0  0  0  0  0  0  0  0  0  0  0
   -2.3504    2.2816  -21.0983 H   0  0  0  0  0  0  0  0  0  0  0  0
   -3.0677    1.7621  -18.7846 H   0  0  0  0  0  0  0  0  0  0  0  0
   -4.6192    0.6197  -17.2330 H   0  0  0  0  0  0  0  0  0  0  0  0
   -7.7455   -1.6756  -18.5966 H   0  0  0  0  0  0  0  0  0  0  0  0
   -6.9182   -2.4894  -21.9574 C   0  0  0  0  0  0  0  0  0  0  0  0
   -5.9051   -3.1110  -21.7228 O   0  0  0  0  0  0  0  0  0  0  0  0
   -7.8852   -2.7048  -23.1446 C   0  0  1  0  0  0  0  0  0  0  0  0
   -8.2735   -4.2021  -23.2579 C   0  0  0  0  0  0  0  0  0  0  0  0
   -7.1663   -5.0482  -23.6708 N   0  0  0  0  0  0  0  0  0  0  0  0
   -6.8717   -6.2554  -22.9087 C   0  0  0  0  0  0  0  0  0  0  0  0
   -7.9333   -7.3095  -22.8945 C   0  0  0  0  0  0  0  0  0  0  0  0
   -8.5373   -7.7514  -21.8112 N   0  0  0  0  0  0  0  0  0  0  0  0
   -9.5177   -8.5912  -22.2782 C   0  0  0  0  0  0  0  0  0  0  0  0
   -9.4601   -8.6954  -23.6340 C   0  0  0  0  0  0  0  0  0  0  0  0
   -8.4315   -7.8827  -24.0235 N   0  0  0  0  0  0  0  0  0  0  0  0
   -7.9941   -7.7385  -25.3912 C   0  0  0  0  0  0  0  0  0  0  0  0
   -8.4741   -8.5347  -25.9641 H   0  0  0  0  0  0  0  0  0  0  0  0
   -8.2889   -6.7756  -25.8124 H   0  0  0  0  0  0  0  0  0  0  0  0
   -6.9115   -7.8481  -25.4427 H   0  0  0  0  0  0  0  0  0  0  0  0
  -10.1591   -9.0728  -24.3676 H   0  0  0  0  0  0  0  0  0  0  0  0
  -10.2758   -8.9987  -21.6131 H   0  0  0  0  0  0  0  0  0  0  0  0
   -5.9629   -6.6717  -23.3466 H   0  0  0  0  0  0  0  0  0  0  0  0
   -6.6990   -5.9930  -21.8608 H   0  0  0  0  0  0  0  0  0  0  0  0
   -6.3606   -4.7003  -24.7162 C   0  0  0  0  0  0  0  0  0  0  0  0
   -5.5921   -5.4938  -25.2525 O   0  0  0  0  0  0  0  0  0  0  0  0
   -6.4550   -3.2735  -25.1732 C   0  0  0  0  0  0  0  0  0  0  0  0
   -5.7525   -2.9170  -26.3259 C   0  0  0  0  0  0  0  0  0  0  0  0
   -5.7214   -1.6046  -26.7540 C   0  0  0  0  0  0  0  0  0  0  0  0
   -6.3930   -0.6569  -25.9936 C   0  0  0  0  0  0  0  0  0  0  0  0
   -6.3447    0.6273  -26.3897 F   0  0  0  0  0  0  0  0  0  0  0  0
   -7.1011   -0.9792  -24.8509 C   0  0  0  0  0  0  0  0  0  0  0  0
   -7.1665   -2.3160  -24.4362 C   0  0  0  0  0  0  0  0  0  0  0  0
   -7.5823   -0.1704  -24.3090 H   0  0  0  0  0  0  0  0  0  0  0  0
   -5.1810   -1.2918  -27.6408 H   0  0  0  0  0  0  0  0  0  0  0  0
   -5.2189   -3.6990  -26.8549 H   0  0  0  0  0  0  0  0  0  0  0  0
   -8.6050   -4.5679  -22.2887 H   0  0  0  0  0  0  0  0  0  0  0  0
   -9.0954   -4.3000  -23.9818 H   0  0  0  0  0  0  0  0  0  0  0  0
   -9.2823   -0.6181  -20.9206 H   0  0  0  0  0  0  0  0  0  0  0  0
   -8.3246    0.2002  -22.1490 H   0  0  0  0  0  0  0  0  0  0  0  0
   -9.3915   -1.2273  -23.7014 H   0  0  0  0  0  0  0  0  0  0  0  0
  -11.1371   -1.7265  -22.0483 H   0  0  0  0  0  0  0  0  0  0  0  0
  -10.1718   -3.0417  -21.3652 H   0  0  0  0  0  0  0  0  0  0  0  0
  -10.7879   -3.1508  -23.0245 H   0  0  0  0  0  0  0  0  0  0  0  0
  1  2  1  0
  2  3  1  0
  3  4  1  0
  4  5  1  0
  5  6  2  0
  6  7  1  0
  7  8  2  0
  8  9  1  0
  9 10  2  0
 10 11  1  0
 11 12  2  0
 12 13  1  0
 13 14  2  0
 13 15  1  0
 12 16  1  0
 11 17  1  0
 10 18  1  0
  8 19  1  0
  6 20  1  0
  4 21  1  0
 21 22  2  0
 21 23  1  0
 23 24  1  6
 24 25  1  0
 25 26  1  0
 26 27  1  0
 27 28  2  0
 28 29  1  0
 29 30  2  0
 30 31  1  0
 31 32  1  0
 32 33  1  0
 32 34  1  0
 32 35  1  0
 30 36  1  0
 29 37  1  0
 26 38  1  0
 26 39  1  0
 25 40  1  0
 40 41  2  0
 40 42  1  0
 42 43  2  0
 43 44  1  0
 44 45  2  0
 45 46  1  0
 45 47  1  0
 47 48  2  0
 47 49  1  0
 44 50  1  0
 43 51  1  0
 24 52  1  0
 24 53  1  0
  3 54  1  0
  3 55  1  0
  2 56  1  6
  1 57  1  0
  1 58  1  0
  1 59  1  0
 23  2  1  0
 31 27  1  0
 48 42  1  0
 14  5  1  0
 48 23  1  0
 14  9  1  0
M  END
>  <cnnaffinities>  (5) 
[6.50389, 6.5116, 6.75885]

>  <score>  (5) 
6.50389

>  <index>  (5) 
4

>  <Smiles>  (5) 
C([C@]1(C(N(c2c(nc(c3c(c(c(c(c23)[H])[H])[H])[H])[H])[H])C(=O)[C@]21C(N(C(c1nc(c(n1C([H])([H])[H])[H])[H])([H])[H])C(=O)c1c(c(c(F)c(c21)[H])[H])[H])([H])[H])([H])[H])[H])([H])([H])[H]

>  <h>  (5) 
<NA>

>  <Training>  (5) 
True

>  <Success>  (5) 
True

>  <enamine_searched>  (5) 
False

>  <enamine_id>  (5) 
nan

$$$$

     RDKit          3D

 58 61  0  0  0  0  0  0  0  0999 V2000
   -8.1550   -4.6225  -21.7207 C   0  0  0  0  0  0  0  0  0  0  0  0
   -7.0984   -3.8587  -21.4366 C   0  0  0  0  0  0  0  0  0  0  0  0
   -6.7669   -2.5136  -21.9913 C   0  0  0  0  0  0  0  0  0  0  0  0
   -7.3604   -1.4159  -21.2284 N   0  0  0  0  0  0  0  0  0  0  0  0
   -8.5890   -0.8093  -21.4612 C   0  0  0  0  0  0  0  0  0  0  0  0
   -9.0241    0.0092  -20.6771 O   0  0  0  0  0  0  0  0  0  0  0  0
   -9.3283   -1.1067  -22.7760 C   0  0  2  0  0  0  0  0  0  0  0  0
   -8.7450   -0.2284  -23.8971 C   0  0  0  0  0  0  0  0  0  0  0  0
   -9.0872    1.1667  -23.6588 N   0  0  0  0  0  0  0  0  0  0  0  0
   -8.0460    2.1736  -23.7302 C   0  0  0  0  0  0  0  0  0  0  0  0
   -7.5194    2.3265  -25.1557 C   0  0  0  0  0  0  0  0  0  0  0  0
   -6.4693    1.8250  -25.5256 O   0  0  0  0  0  0  0  0  0  0  0  0
   -8.3347    3.0244  -25.9858 N   0  0  0  0  0  0  0  0  0  0  0  0
   -7.9385    3.2063  -27.3688 C   0  0  0  0  0  0  0  0  0  0  0  0
   -6.9855    3.7432  -27.4213 H   0  0  0  0  0  0  0  0  0  0  0  0
   -7.8087    2.2376  -27.8642 H   0  0  0  0  0  0  0  0  0  0  0  0
   -8.7027    3.7809  -27.8960 H   0  0  0  0  0  0  0  0  0  0  0  0
   -9.2323    3.3457  -25.6562 H   0  0  0  0  0  0  0  0  0  0  0  0
   -7.2142    1.8771  -23.0813 H   0  0  0  0  0  0  0  0  0  0  0  0
   -8.4710    3.1166  -23.3716 H   0  0  0  0  0  0  0  0  0  0  0  0
  -10.3856    1.5503  -23.4817 C   0  0  0  0  0  0  0  0  0  0  0  0
  -10.7845    2.6801  -23.7401 O   0  0  0  0  0  0  0  0  0  0  0  0
  -11.2926    0.4807  -22.9604 C   0  0  0  0  0  0  0  0  0  0  0  0
  -12.6445    0.7864  -22.8059 C   0  0  0  0  0  0  0  0  0  0  0  0
  -13.5374   -0.1833  -22.3913 C   0  0  0  0  0  0  0  0  0  0  0  0
  -13.0534   -1.4585  -22.1003 C   0  0  0  0  0  0  0  0  0  0  0  0
  -14.1711   -2.6804  -21.5656 Cl  0  0  0  0  0  0  0  0  0  0  0  0
  -11.7045   -1.7626  -22.2234 C   0  0  0  0  0  0  0  0  0  0  0  0
  -10.8030   -0.7888  -22.6559 C   0  0  0  0  0  0  0  0  0  0  0  0
  -11.3581   -2.7649  -21.9812 H   0  0  0  0  0  0  0  0  0  0  0  0
  -14.5959    0.0371  -22.2909 H   0  0  0  0  0  0  0  0  0  0  0  0
  -12.9678    1.7977  -23.0258 H   0  0  0  0  0  0  0  0  0  0  0  0
   -9.1433   -0.5643  -24.8654 H   0  0  0  0  0  0  0  0  0  0  0  0
   -7.6545   -0.2945  -23.9486 H   0  0  0  0  0  0  0  0  0  0  0  0
   -9.2205   -2.1616  -23.0371 H   0  0  0  0  0  0  0  0  0  0  0  0
   -6.5912   -0.8561  -20.1765 C   0  0  0  0  0  0  0  0  0  0  0  0
   -6.9000   -1.1121  -18.8676 C   0  0  0  0  0  0  0  0  0  0  0  0
   -6.1971   -0.6158  -17.8233 N   0  0  0  0  0  0  0  0  0  0  0  0
   -5.1769    0.1624  -18.0898 C   0  0  0  0  0  0  0  0  0  0  0  0
   -4.7450    0.4905  -19.4048 C   0  0  0  0  0  0  0  0  0  0  0  0
   -3.6233    1.3252  -19.6452 C   0  0  0  0  0  0  0  0  0  0  0  0
   -3.2416    1.6327  -20.9205 C   0  0  0  0  0  0  0  0  0  0  0  0
   -3.9627    1.1255  -22.0217 C   0  0  0  0  0  0  0  0  0  0  0  0
   -5.0512    0.3136  -21.8182 C   0  0  0  0  0  0  0  0  0  0  0  0
   -5.4649   -0.0353  -20.4964 C   0  0  0  0  0  0  0  0  0  0  0  0
   -5.5938   -0.0593  -22.6838 H   0  0  0  0  0  0  0  0  0  0  0  0
   -3.6572    1.3826  -23.0326 H   0  0  0  0  0  0  0  0  0  0  0  0
   -2.3889    2.2824  -21.0913 H   0  0  0  0  0  0  0  0  0  0  0  0
   -3.1001    1.7302  -18.7859 H   0  0  0  0  0  0  0  0  0  0  0  0
   -4.6279    0.5753  -17.2437 H   0  0  0  0  0  0  0  0  0  0  0  0
   -7.7495   -1.7504  -18.6189 H   0  0  0  0  0  0  0  0  0  0  0  0
   -7.0339   -2.4170  -23.0491 H   0  0  0  0  0  0  0  0  0  0  0  0
   -5.6910   -2.4372  -21.8278 H   0  0  0  0  0  0  0  0  0  0  0  0
   -5.9506   -4.1983  -20.4794 C   0  0  0  0  0  0  0  0  0  0  0  0
   -5.1168   -3.2731  -20.3532 O   0  0  0  0  0  0  0  0  0  0  0  0
   -5.8620   -5.3181  -19.9556 O   0  0  0  0  0  1  0  0  0  0  0  0
   -8.9212   -4.2407  -22.3994 H   0  0  0  0  0  0  0  0  0  0  0  0
   -8.3412   -5.6037  -21.2853 H   0  0  0  0  0  0  0  0  0  0  0  0
  1  2  2  0
  2  3  1  0
  3  4  1  0
  4  5  1  0
  5  6  2  0
  5  7  1  0
  7  8  1  0
  8  9  1  0
  9 10  1  0
 10 11  1  0
 11 12  2  0
 11 13  1  0
 13 14  1  0
 14 15  1  0
 14 16  1  0
 14 17  1  0
 13 18  1  0
 10 19  1  0
 10 20  1  0
  9 21  1  0
 21 22  2  0
 21 23  1  0
 23 24  2  0
 24 25  1  0
 25 26  2  0
 26 27  1  0
 26 28  1  0
 28 29  2  0
 28 30  1  0
 25 31  1  0
 24 32  1  0
  8 33  1  0
  8 34  1  0
  7 35  1  6
  4 36  1  0
 36 37  2  0
 37 38  1  0
 38 39  2  0
 39 40  1  0
 40 41  2  0
 41 42  1  0
 42 43  2  0
 43 44  1  0
 44 45  2  0
 44 46  1  0
 43 47  1  0
 42 48  1  0
 41 49  1  0
 39 50  1  0
 37 51  1  0
  3 52  1  0
  3 53  1  0
  2 54  1  0
 54 55  2  0
 54 56  1  0
  1 57  1  0
  1 58  1  0
 29  7  1  0
 45 36  1  0
 29 23  1  0
 45 40  1  0
M  CHG  1  56  -1
M  END
>  <cnnaffinities>  (6) 
[6.43627, 6.66563]

>  <score>  (6) 
6.43627

>  <index>  (6) 
5

>  <Smiles>  (6) 
C(=C(C(N(C(=O)[C@@]1(C(N(C(C(=O)N(C([H])([H])[H])[H])([H])[H])C(=O)c2c(c(c(Cl)c(c12)[H])[H])[H])([H])[H])[H])c1c(nc(c2c(c(c(c(c12)[H])[H])[H])[H])[H])[H])([H])[H])C(=O)[O-])([H])[H]

>  <h>  (6) 
<NA>

>  <Training>  (6) 
True

>  <Success>  (6) 
True

>  <enamine_searched>  (6) 
False

>  <enamine_id>  (6) 
nan

$$$$

     RDKit          3D

 43 45  0  0  0  0  0  0  0  0999 V2000
  -14.7838   -2.2175  -23.0418 C   0  0  0  0  0  0  0  0  0  0  0  0
  -13.4493   -2.9044  -22.6958 C   0  0  0  0  0  0  0  0  0  0  0  0
  -12.1806   -2.2056  -23.2127 C   0  0  0  0  0  0  0  0  0  0  0  0
  -10.9138   -3.0366  -22.9421 C   0  0  0  0  0  0  0  0  0  0  0  0
   -9.6090   -2.2639  -23.2134 C   0  0  0  0  0  0  0  0  0  0  0  0
   -9.5919   -0.9672  -22.5225 N   0  0  0  0  0  0  0  0  0  0  0  0
   -8.6061   -0.4520  -21.7164 C   0  0  0  0  0  0  0  0  0  0  0  0
   -8.6000    0.7088  -21.3483 O   0  0  0  0  0  0  0  0  0  0  0  0
   -7.4974   -1.4245  -21.2799 C   0  0  0  0  0  0  0  0  0  0  0  0
   -6.6123   -0.8435  -20.2135 C   0  0  0  0  0  0  0  0  0  0  0  0
   -6.9156   -1.0638  -18.8962 C   0  0  0  0  0  0  0  0  0  0  0  0
   -6.2303   -0.5678  -17.8336 N   0  0  0  0  0  0  0  0  0  0  0  0
   -5.1958    0.1902  -18.0941 C   0  0  0  0  0  0  0  0  0  0  0  0
   -4.7572    0.5080  -19.4074 C   0  0  0  0  0  0  0  0  0  0  0  0
   -3.6255    1.3316  -19.6381 C   0  0  0  0  0  0  0  0  0  0  0  0
   -3.2421    1.6353  -20.9149 C   0  0  0  0  0  0  0  0  0  0  0  0
   -3.9774    1.1394  -22.0130 C   0  0  0  0  0  0  0  0  0  0  0  0
   -5.0764    0.3396  -21.8165 C   0  0  0  0  0  0  0  0  0  0  0  0
   -5.4913   -0.0100  -20.5033 C   0  0  0  0  0  0  0  0  0  0  0  0
   -5.6368   -0.0269  -22.6706 H   0  0  0  0  0  0  0  0  0  0  0  0
   -3.6646    1.3989  -23.0213 H   0  0  0  0  0  0  0  0  0  0  0  0
   -2.3820    2.2762  -21.0877 H   0  0  0  0  0  0  0  0  0  0  0  0
   -3.0835    1.7239  -18.7800 H   0  0  0  0  0  0  0  0  0  0  0  0
   -4.6440    0.5927  -17.2410 H   0  0  0  0  0  0  0  0  0  0  0  0
   -7.7769   -1.6810  -18.6434 H   0  0  0  0  0  0  0  0  0  0  0  0
   -7.9815   -2.3261  -20.8815 H   0  0  0  0  0  0  0  0  0  0  0  0
   -6.9074   -1.7325  -22.1533 H   0  0  0  0  0  0  0  0  0  0  0  0
  -10.7583   -0.1363  -22.8179 C   0  0  0  0  0  0  0  0  0  0  0  0
  -12.0081   -0.9131  -22.4403 C   0  0  0  0  0  0  0  0  0  0  0  0
  -11.9151   -1.2809  -21.4136 H   0  0  0  0  0  0  0  0  0  0  0  0
  -12.8920   -0.2710  -22.4726 H   0  0  0  0  0  0  0  0  0  0  0  0
  -10.6938    0.8074  -22.2656 H   0  0  0  0  0  0  0  0  0  0  0  0
  -10.7635    0.1015  -23.8943 H   0  0  0  0  0  0  0  0  0  0  0  0
   -8.7588   -2.8904  -22.9199 H   0  0  0  0  0  0  0  0  0  0  0  0
   -9.5060   -2.0741  -24.2947 H   0  0  0  0  0  0  0  0  0  0  0  0
  -10.9230   -3.3212  -21.8778 H   0  0  0  0  0  0  0  0  0  0  0  0
  -10.9240   -3.9659  -23.5261 H   0  0  0  0  0  0  0  0  0  0  0  0
  -12.2733   -1.9732  -24.2828 H   0  0  0  0  0  0  0  0  0  0  0  0
  -13.4589   -3.9541  -23.0075 H   0  0  0  0  0  0  0  0  0  0  0  0
  -13.3579   -2.9371  -21.6014 H   0  0  0  0  0  0  0  0  0  0  0  0
  -14.7913   -1.7758  -24.0479 H   0  0  0  0  0  0  0  0  0  0  0  0
  -15.0153   -1.4188  -22.3228 H   0  0  0  0  0  0  0  0  0  0  0  0
  -15.5894   -2.9565  -23.0039 H   0  0  0  0  0  0  0  0  0  0  0  0
  1  2  1  0
  2  3  1  0
  3  4  1  0
  4  5  1  0
  5  6  1  0
  6  7  1  0
  7  8  2  0
  7  9  1  0
  9 10  1  0
 10 11  2  0
 11 12  1  0
 12 13  2  0
 13 14  1  0
 14 15  2  0
 15 16  1  0
 16 17  2  0
 17 18  1  0
 18 19  2  0
 18 20  1  0
 17 21  1  0
 16 22  1  0
 15 23  1  0
 13 24  1  0
 11 25  1  0
  9 26  1  0
  9 27  1  0
  6 28  1  0
 28 29  1  0
 29 30  1  0
 29 31  1  0
 28 32  1  0
 28 33  1  0
  5 34  1  0
  5 35  1  0
  4 36  1  0
  4 37  1  0
  3 38  1  0
  2 39  1  0
  2 40  1  0
  1 41  1  0
  1 42  1  0
  1 43  1  0
 29  3  1  0
 19 10  1  0
 19 14  1  0
M  END
>  <cnnaffinities>  (7) 
[4.73063, 4.84805, 4.84659, 5.25928, 5.25927]

>  <score>  (7) 
4.73063

>  <index>  (7) 
6

>  <Smiles>  (7) 
C(C(C1(C(C(N(C(=O)C(c2c(nc(c3c(c(c(c(c23)[H])[H])[H])[H])[H])[H])([H])[H])C(C1([H])[H])([H])[H])([H])[H])([H])[H])[H])([H])[H])([H])([H])[H]

>  <h>  (7) 
<NA>

>  <Training>  (7) 
True

>  <Success>  (7) 
True

>  <enamine_searched>  (7) 
False

>  <enamine_id>  (7) 
nan

$$$$

     RDKit          3D

 44 47  0  0  0  0  0  0  0  0999 V2000
  -13.2424   -3.7995  -20.7088 C   0  0  0  0  0  0  0  0  0  0  0  0
  -13.6902   -3.4412  -22.1163 C   0  0  0  0  0  0  0  0  0  0  0  0
  -12.6246   -2.2867  -23.0023 S   0  0  0  0  0  0  0  0  0  0  0  0
  -13.1855   -2.1704  -24.3317 O   0  0  0  0  0  0  0  0  0  0  0  0
  -12.4964   -1.1084  -22.1486 O   0  0  0  0  0  0  0  0  0  0  0  0
  -11.0923   -2.9977  -23.2130 N   0  0  0  0  0  0  0  0  0  0  0  0
  -10.2265   -3.3807  -22.0720 C   0  0  0  0  0  0  0  0  0  0  0  0
   -9.0982   -2.4667  -22.5911 C   0  0  0  0  0  0  0  0  0  0  0  0
  -10.0460   -2.0454  -23.7208 C   0  0  0  0  0  0  0  0  0  0  0  0
   -9.6971   -2.2459  -24.7403 H   0  0  0  0  0  0  0  0  0  0  0  0
  -10.3674   -1.0074  -23.6292 H   0  0  0  0  0  0  0  0  0  0  0  0
   -8.7070   -1.3743  -21.6082 C   0  0  0  0  0  0  0  0  0  0  0  0
   -9.4067   -0.5316  -21.0952 O   0  0  0  0  0  0  0  0  0  0  0  0
   -7.3520   -1.5577  -21.3667 N   0  0  0  0  0  0  0  0  0  0  0  0
   -6.6402   -0.9184  -20.3162 C   0  0  0  0  0  0  0  0  0  0  0  0
   -7.0156   -1.1263  -19.0148 C   0  0  0  0  0  0  0  0  0  0  0  0
   -6.3480   -0.6268  -17.9468 N   0  0  0  0  0  0  0  0  0  0  0  0
   -5.2944    0.1167  -18.1781 C   0  0  0  0  0  0  0  0  0  0  0  0
   -4.8160    0.4330  -19.4808 C   0  0  0  0  0  0  0  0  0  0  0  0
   -3.6860    1.2709  -19.6772 C   0  0  0  0  0  0  0  0  0  0  0  0
   -3.2950    1.6130  -20.9431 C   0  0  0  0  0  0  0  0  0  0  0  0
   -4.0076    1.1240  -22.0632 C   0  0  0  0  0  0  0  0  0  0  0  0
   -5.0876    0.2891  -21.9006 C   0  0  0  0  0  0  0  0  0  0  0  0
   -5.5145   -0.0814  -20.5947 C   0  0  0  0  0  0  0  0  0  0  0  0
   -5.6392   -0.0827  -22.7604 H   0  0  0  0  0  0  0  0  0  0  0  0
   -3.7068    1.4246  -23.0630 H   0  0  0  0  0  0  0  0  0  0  0  0
   -2.4512    2.2838  -21.0942 H   0  0  0  0  0  0  0  0  0  0  0  0
   -3.1724    1.6555  -18.7995 H   0  0  0  0  0  0  0  0  0  0  0  0
   -4.7661    0.5236  -17.3131 H   0  0  0  0  0  0  0  0  0  0  0  0
   -7.8875   -1.7377  -18.7886 H   0  0  0  0  0  0  0  0  0  0  0  0
   -6.8321   -2.6544  -22.0876 C   0  0  0  0  0  0  0  0  0  0  0  0
   -5.7235   -3.1191  -21.9665 O   0  0  0  0  0  0  0  0  0  0  0  0
   -7.8296   -3.0727  -22.9277 N   0  0  0  0  0  0  0  0  0  0  0  0
   -7.6652   -4.2348  -23.7829 C   0  0  0  0  0  0  0  0  0  0  0  0
   -7.1586   -5.0349  -23.2394 H   0  0  0  0  0  0  0  0  0  0  0  0
   -8.6368   -4.5978  -24.1330 H   0  0  0  0  0  0  0  0  0  0  0  0
   -7.0440   -3.9895  -24.6467 H   0  0  0  0  0  0  0  0  0  0  0  0
   -9.9504   -4.4398  -22.0489 H   0  0  0  0  0  0  0  0  0  0  0  0
  -10.5873   -3.0295  -21.1121 H   0  0  0  0  0  0  0  0  0  0  0  0
  -14.6310   -2.8817  -22.0756 H   0  0  0  0  0  0  0  0  0  0  0  0
  -13.8627   -4.3018  -22.7687 H   0  0  0  0  0  0  0  0  0  0  0  0
  -12.2796   -4.3178  -20.6951 H   0  0  0  0  0  0  0  0  0  0  0  0
  -13.9925   -4.4631  -20.2625 H   0  0  0  0  0  0  0  0  0  0  0  0
  -13.1458   -2.8880  -20.1105 H   0  0  0  0  0  0  0  0  0  0  0  0
  1  2  1  0
  2  3  1  0
  3  4  2  0
  3  5  2  0
  3  6  1  0
  6  7  1  0
  7  8  1  0
  8  9  1  0
  9 10  1  0
  9 11  1  0
  8 12  1  0
 12 13  2  0
 12 14  1  0
 14 15  1  0
 15 16  2  0
 16 17  1  0
 17 18  2  0
 18 19  1  0
 19 20  2  0
 20 21  1  0
 21 22  2  0
 22 23  1  0
 23 24  2  0
 23 25  1  0
 22 26  1  0
 21 27  1  0
 20 28  1  0
 18 29  1  0
 16 30  1  0
 14 31  1  0
 31 32  2  0
 31 33  1  0
 33 34  1  0
 34 35  1  0
 34 36  1  0
 34 37  1  0
  7 38  1  0
  7 39  1  0
  2 40  1  0
  2 41  1  0
  1 42  1  0
  1 43  1  0
  1 44  1  0
  9  6  1  0
 24 15  1  0
 33  8  1  0
 24 19  1  0
M  END
>  <cnnaffinities>  (8) 
[5.82785, 5.12827, 5.13025, 5.12679, 5.1983, 5.26775, 5.21711]

>  <score>  (8) 
5.82785

>  <index>  (8) 
7

>  <Smiles>  (8) 
C(C(S(=O)(=O)N1C(C2(C1([H])[H])C(=O)N(c1c(nc(c3c(c(c(c(c13)[H])[H])[H])[H])[H])[H])C(=O)N2C([H])([H])[H])([H])[H])([H])[H])([H])([H])[H]

>  <h>  (8) 
<NA>

>  <Training>  (8) 
True

>  <Success>  (8) 
True

>  <enamine_searched>  (8) 
False

>  <enamine_id>  (8) 
nan

$$$$

     RDKit          3D

 60 64  0  0  0  0  0  0  0  0999 V2000
   -7.6110    3.1067  -21.9257 C   0  0  0  0  0  0  0  0  0  0  0  0
   -8.7468    2.6093  -22.6824 N   0  0  0  0  0  0  0  0  0  0  0  0
   -8.4504    1.8158  -23.7505 C   0  0  0  0  0  0  0  0  0  0  0  0
   -7.2952    1.5544  -24.0582 O   0  0  0  0  0  0  0  0  0  0  0  0
   -9.6191    1.2346  -24.5347 C   0  0  0  0  0  0  0  0  0  0  0  0
  -10.0721    0.0345  -23.8691 N   0  0  0  0  0  0  0  0  0  0  0  0
   -9.2261   -1.1497  -23.8933 C   0  0  0  0  0  0  0  0  0  0  0  0
   -9.3030   -1.9143  -22.5422 C   0  0  2  0  0  0  0  0  0  0  0  0
   -8.7045   -0.9898  -21.4436 C   0  0  0  0  0  0  0  0  0  0  0  0
   -9.2341   -0.0158  -20.9443 O   0  0  0  0  0  0  0  0  0  0  0  0
   -7.4194   -1.4172  -21.1717 N   0  0  0  0  0  0  0  0  0  0  0  0
   -6.6207   -0.8219  -20.1625 C   0  0  0  0  0  0  0  0  0  0  0  0
   -6.9235   -1.0400  -18.8411 C   0  0  0  0  0  0  0  0  0  0  0  0
   -6.2084   -0.5499  -17.8006 N   0  0  0  0  0  0  0  0  0  0  0  0
   -5.1693    0.1941  -18.0822 C   0  0  0  0  0  0  0  0  0  0  0  0
   -4.7436    0.5062  -19.4032 C   0  0  0  0  0  0  0  0  0  0  0  0
   -3.6239    1.3430  -19.6490 C   0  0  0  0  0  0  0  0  0  0  0  0
   -3.2601    1.6542  -20.9283 C   0  0  0  0  0  0  0  0  0  0  0  0
   -4.0011    1.1538  -22.0212 C   0  0  0  0  0  0  0  0  0  0  0  0
   -5.0924    0.3430  -21.8121 C   0  0  0  0  0  0  0  0  0  0  0  0
   -5.4878   -0.0130  -20.4927 C   0  0  0  0  0  0  0  0  0  0  0  0
   -5.6813    0.0206  -22.6663 H   0  0  0  0  0  0  0  0  0  0  0  0
   -3.7076    1.4170  -23.0328 H   0  0  0  0  0  0  0  0  0  0  0  0
   -2.4084    2.3020  -21.1086 H   0  0  0  0  0  0  0  0  0  0  0  0
   -3.0857    1.7445  -18.7934 H   0  0  0  0  0  0  0  0  0  0  0  0
   -4.5994    0.5994  -17.2436 H   0  0  0  0  0  0  0  0  0  0  0  0
   -7.7840   -1.6556  -18.5929 H   0  0  0  0  0  0  0  0  0  0  0  0
   -6.9961   -2.5570  -21.9680 C   0  0  0  0  0  0  0  0  0  0  0  0
   -8.3338   -3.1248  -22.4855 C   0  0  2  0  0  0  0  0  0  0  0  0
   -8.1916   -3.9164  -23.7850 C   0  0  0  0  0  0  0  0  0  0  0  0
   -7.4230   -5.0834  -23.5993 O   0  0  0  0  0  0  0  0  0  0  0  0
   -8.1820   -6.2457  -23.3986 C   0  0  0  0  0  0  0  0  0  0  0  0
   -8.7481   -6.5166  -24.3010 H   0  0  0  0  0  0  0  0  0  0  0  0
   -8.8864   -6.1358  -22.5626 H   0  0  0  0  0  0  0  0  0  0  0  0
   -7.4884   -7.0567  -23.1658 H   0  0  0  0  0  0  0  0  0  0  0  0
   -7.6625   -3.2979  -24.5244 H   0  0  0  0  0  0  0  0  0  0  0  0
   -9.1862   -4.1475  -24.2028 H   0  0  0  0  0  0  0  0  0  0  0  0
   -8.6870   -3.8016  -21.7004 H   0  0  0  0  0  0  0  0  0  0  0  0
   -6.3408   -2.2471  -22.7981 H   0  0  0  0  0  0  0  0  0  0  0  0
   -6.4467   -3.2801  -21.3568 H   0  0  0  0  0  0  0  0  0  0  0  0
  -10.7788   -2.2077  -22.3056 C   0  0  0  0  0  0  0  0  0  0  0  0
  -11.2471   -3.3186  -21.5988 C   0  0  0  0  0  0  0  0  0  0  0  0
  -12.5846   -3.3872  -21.2435 C   0  0  0  0  0  0  0  0  0  0  0  0
  -13.1180   -4.4699  -20.0084 Cl  0  0  0  0  0  0  0  0  0  0  0  0
  -13.5391   -2.5081  -21.7392 C   0  0  0  0  0  0  0  0  0  0  0  0
  -13.0952   -1.4423  -22.4808 C   0  0  0  0  0  0  0  0  0  0  0  0
  -11.7337   -1.2510  -22.6903 C   0  0  0  0  0  0  0  0  0  0  0  0
  -11.3124    0.0384  -23.3124 C   0  0  0  0  0  0  0  0  0  0  0  0
  -12.0293    1.0317  -23.3189 O   0  0  0  0  0  0  0  0  0  0  0  0
  -13.7980   -0.7191  -22.8705 H   0  0  0  0  0  0  0  0  0  0  0  0
  -14.5794   -2.6369  -21.4617 H   0  0  0  0  0  0  0  0  0  0  0  0
  -10.5735   -4.0920  -21.2457 H   0  0  0  0  0  0  0  0  0  0  0  0
   -8.1997   -0.8283  -24.1004 H   0  0  0  0  0  0  0  0  0  0  0  0
   -9.5458   -1.8133  -24.7074 H   0  0  0  0  0  0  0  0  0  0  0  0
  -10.4587    1.9290  -24.5903 H   0  0  0  0  0  0  0  0  0  0  0  0
   -9.2950    0.9844  -25.5511 H   0  0  0  0  0  0  0  0  0  0  0  0
   -9.6075    2.4822  -22.1567 H   0  0  0  0  0  0  0  0  0  0  0  0
   -7.9306    3.8753  -21.2209 H   0  0  0  0  0  0  0  0  0  0  0  0
   -6.9090    3.5781  -22.6174 H   0  0  0  0  0  0  0  0  0  0  0  0
   -7.0977    2.2900  -21.3892 H   0  0  0  0  0  0  0  0  0  0  0  0
  1  2  1  0
  2  3  1  0
  3  4  2  0
  3  5  1  0
  5  6  1  0
  6  7  1  0
  8  7  1  6
  8  9  1  0
  9 10  2  0
  9 11  1  0
 11 12  1  0
 12 13  2  0
 13 14  1  0
 14 15  2  0
 15 16  1  0
 16 17  2  0
 17 18  1  0
 18 19  2  0
 19 20  1  0
 20 21  2  0
 20 22  1  0
 19 23  1  0
 18 24  1  0
 17 25  1  0
 15 26  1  0
 13 27  1  0
 11 28  1  0
 28 29  1  0
 29 30  1  0
 30 31  1  0
 31 32  1  0
 32 33  1  0
 32 34  1  0
 32 35  1  0
 30 36  1  0
 30 37  1  0
 29 38  1  1
 28 39  1  0
 28 40  1  0
  8 41  1  0
 41 42  2  0
 42 43  1  0
 43 44  1  0
 43 45  2  0
 45 46  1  0
 46 47  2  0
 47 48  1  0
 48 49  2  0
 46 50  1  0
 45 51  1  0
 42 52  1  0
  7 53  1  0
  7 54  1  0
  5 55  1  0
  5 56  1  0
  2 57  1  0
  1 58  1  0
  1 59  1  0
  1 60  1  0
 48  6  1  0
 29  8  1  0
 47 41  1  0
 21 12  1  0
 21 16  1  0
M  END
>  <cnnaffinities>  (9) 
[6.56759]

>  <score>  (9) 
6.56759

>  <index>  (9) 
8

>  <Smiles>  (9) 
C(N(C(=O)C(N1C([C@@]2(C(=O)N(c3c(nc(c4c(c(c(c(c34)[H])[H])[H])[H])[H])[H])C([C@@]2(C(OC([H])([H])[H])([H])[H])[H])([H])[H])c2c(c(Cl)c(c(c2C1=O)[H])[H])[H])([H])[H])([H])[H])[H])([H])([H])[H]

>  <h>  (9) 
<NA>

>  <Training>  (9) 
True

>  <Success>  (9) 
True

>  <enamine_searched>  (9) 
False

>  <enamine_id>  (9) 
nan

$$$$

     RDKit          3D

 41 43  0  0  0  0  0  0  0  0999 V2000
  -13.1736   -2.9110  -22.7510 C   0  0  0  0  0  0  0  0  0  0  0  0
  -11.9766   -2.0551  -23.1739 C   0  0  1  0  0  0  0  0  0  0  0  0
  -12.1510   -0.6453  -22.6476 C   0  0  0  0  0  0  0  0  0  0  0  0
  -11.2980    0.3651  -22.8331 C   0  0  0  0  0  0  0  0  0  0  0  0
   -9.9719    0.2356  -23.5683 C   0  0  0  0  0  0  0  0  0  0  0  0
   -9.0787   -0.7776  -23.0115 N   0  0  0  0  0  0  0  0  0  0  0  0
   -8.3616   -0.3909  -21.9023 C   0  0  0  0  0  0  0  0  0  0  0  0
   -8.4691    0.7337  -21.4439 O   0  0  0  0  0  0  0  0  0  0  0  0
   -7.4213   -1.4279  -21.2735 C   0  0  0  0  0  0  0  0  0  0  0  0
   -6.5738   -0.8333  -20.1843 C   0  0  0  0  0  0  0  0  0  0  0  0
   -6.8840   -1.0392  -18.8662 C   0  0  0  0  0  0  0  0  0  0  0  0
   -6.1963   -0.5365  -17.8094 N   0  0  0  0  0  0  0  0  0  0  0  0
   -5.1605    0.2183  -18.0752 C   0  0  0  0  0  0  0  0  0  0  0  0
   -4.7233    0.5293  -19.3902 C   0  0  0  0  0  0  0  0  0  0  0  0
   -3.5969    1.3561  -19.6258 C   0  0  0  0  0  0  0  0  0  0  0  0
   -3.2109    1.6513  -20.9050 C   0  0  0  0  0  0  0  0  0  0  0  0
   -3.9377    1.1324  -21.9982 C   0  0  0  0  0  0  0  0  0  0  0  0
   -5.0302    0.3242  -21.7955 C   0  0  0  0  0  0  0  0  0  0  0  0
   -5.4541    0.0014  -20.4784 C   0  0  0  0  0  0  0  0  0  0  0  0
   -5.5861   -0.0698  -22.6402 H   0  0  0  0  0  0  0  0  0  0  0  0
   -3.6321    1.3814  -23.0101 H   0  0  0  0  0  0  0  0  0  0  0  0
   -2.3599    2.3029  -21.0803 H   0  0  0  0  0  0  0  0  0  0  0  0
   -3.0730    1.7648  -18.7662 H   0  0  0  0  0  0  0  0  0  0  0  0
   -4.6119    0.6211  -17.2233 H   0  0  0  0  0  0  0  0  0  0  0  0
   -7.7351   -1.6600  -18.5877 H   0  0  0  0  0  0  0  0  0  0  0  0
   -6.8076   -1.8971  -22.0554 H   0  0  0  0  0  0  0  0  0  0  0  0
   -8.0495   -2.2283  -20.8577 H   0  0  0  0  0  0  0  0  0  0  0  0
   -9.3822   -2.1572  -23.3758 C   0  0  0  0  0  0  0  0  0  0  0  0
  -10.6575   -2.7165  -22.7237 C   0  0  0  0  0  0  0  0  0  0  0  0
  -10.5847   -2.6557  -21.6271 H   0  0  0  0  0  0  0  0  0  0  0  0
  -10.7279   -3.7778  -22.9871 H   0  0  0  0  0  0  0  0  0  0  0  0
   -8.5175   -2.7880  -23.1378 H   0  0  0  0  0  0  0  0  0  0  0  0
   -9.4996   -2.1788  -24.4720 H   0  0  0  0  0  0  0  0  0  0  0  0
  -10.1070   -0.0638  -24.6147 H   0  0  0  0  0  0  0  0  0  0  0  0
   -9.4434    1.1951  -23.5421 H   0  0  0  0  0  0  0  0  0  0  0  0
  -11.5305    1.3447  -22.4077 H   0  0  0  0  0  0  0  0  0  0  0  0
  -13.0416   -0.4738  -22.0361 H   0  0  0  0  0  0  0  0  0  0  0  0
  -11.9390   -2.0163  -24.2759 H   0  0  0  0  0  0  0  0  0  0  0  0
  -13.0483   -3.9577  -23.0533 H   0  0  0  0  0  0  0  0  0  0  0  0
  -13.3062   -2.8750  -21.6631 H   0  0  0  0  0  0  0  0  0  0  0  0
  -14.0883   -2.5270  -23.2105 H   0  0  0  0  0  0  0  0  0  0  0  0
  1  2  1  0
  2  3  1  0
  3  4  2  0
  4  5  1  0
  5  6  1  0
  6  7  1  0
  7  8  2  0
  7  9  1  0
  9 10  1  0
 10 11  2  0
 11 12  1  0
 12 13  2  0
 13 14  1  0
 14 15  2  0
 15 16  1  0
 16 17  2  0
 17 18  1  0
 18 19  2  0
 18 20  1  0
 17 21  1  0
 16 22  1  0
 15 23  1  0
 13 24  1  0
 11 25  1  0
  9 26  1  0
  9 27  1  0
  6 28  1  0
 28 29  1  0
 29 30  1  0
 29 31  1  0
 28 32  1  0
 28 33  1  0
  5 34  1  0
  5 35  1  0
  4 36  1  0
  3 37  1  0
  2 38  1  6
  1 39  1  0
  1 40  1  0
  1 41  1  0
 29  2  1  0
 19 10  1  0
 19 14  1  0
M  END
>  <cnnaffinities>  (10) 
[5.08032, 5.21565]

>  <score>  (10) 
5.08032

>  <index>  (10) 
9

>  <Smiles>  (10) 
C([C@]1(C(=C(C(N(C(=O)C(c2c(nc(c3c(c(c(c(c23)[H])[H])[H])[H])[H])[H])([H])[H])C(C1([H])[H])([H])[H])([H])[H])[H])[H])[H])([H])([H])[H]

>  <h>  (10) 
<NA>

>  <Training>  (10) 
True

>  <Success>  (10) 
True

>  <enamine_searched>  (10) 
False

>  <enamine_id>  (10) 
nan

$$$$

     RDKit          3D

 57 62  0  0  0  0  0  0  0  0999 V2000
  -10.3192   -0.9618  -23.4382 C   0  0  0  0  0  0  0  0  0  0  0  0
   -8.9171   -1.3293  -22.9633 C   0  0  1  0  0  0  0  0  0  0  0  0
   -8.3478   -0.4124  -21.8712 C   0  0  0  0  0  0  0  0  0  0  0  0
   -7.3481   -1.2536  -21.2317 N   0  0  0  0  0  0  0  0  0  0  0  0
   -6.5329   -0.8025  -20.1739 C   0  0  0  0  0  0  0  0  0  0  0  0
   -6.8225   -1.1110  -18.8709 C   0  0  0  0  0  0  0  0  0  0  0  0
   -6.1496   -0.5927  -17.8138 N   0  0  0  0  0  0  0  0  0  0  0  0
   -5.1512    0.2182  -18.0615 C   0  0  0  0  0  0  0  0  0  0  0  0
   -4.7045    0.5599  -19.3726 C   0  0  0  0  0  0  0  0  0  0  0  0
   -3.5878    1.4008  -19.6208 C   0  0  0  0  0  0  0  0  0  0  0  0
   -3.2104    1.6949  -20.9038 C   0  0  0  0  0  0  0  0  0  0  0  0
   -3.9167    1.1557  -22.0022 C   0  0  0  0  0  0  0  0  0  0  0  0
   -4.9903    0.3298  -21.7891 C   0  0  0  0  0  0  0  0  0  0  0  0
   -5.4163    0.0314  -20.4688 C   0  0  0  0  0  0  0  0  0  0  0  0
   -5.5243   -0.1155  -22.6218 H   0  0  0  0  0  0  0  0  0  0  0  0
   -3.6109    1.3999  -23.0167 H   0  0  0  0  0  0  0  0  0  0  0  0
   -2.3633    2.3492  -21.0897 H   0  0  0  0  0  0  0  0  0  0  0  0
   -3.0465    1.8142  -18.7753 H   0  0  0  0  0  0  0  0  0  0  0  0
   -4.6360    0.6386  -17.1962 H   0  0  0  0  0  0  0  0  0  0  0  0
   -7.6345   -1.7979  -18.6364 H   0  0  0  0  0  0  0  0  0  0  0  0
   -7.5871   -2.5952  -21.4023 C   0  0  0  0  0  0  0  0  0  0  0  0
   -6.9431   -3.4746  -20.8591 O   0  0  0  0  0  0  0  0  0  0  0  0
   -8.7802   -2.7602  -22.3498 C   0  0  1  0  0  0  0  0  0  0  0  0
   -9.9934   -3.1313  -21.4575 C   0  0  0  0  0  0  0  0  0  0  0  0
  -11.1331   -3.6721  -22.1799 N   0  0  0  0  0  0  0  0  0  0  0  0
  -12.4776   -3.6606  -21.5868 C   0  0  0  0  0  0  0  0  0  0  0  0
  -13.3800   -2.5709  -22.0607 C   0  0  0  0  0  0  0  0  0  0  0  0
  -14.0917   -1.6263  -21.4082 C   0  0  0  0  0  0  0  0  0  0  0  0
  -14.8560   -0.9553  -22.3385 N   0  0  0  0  0  4  0  0  0  0  0  0
  -14.6001   -1.4771  -23.5466 C   0  0  0  0  0  0  0  0  0  0  0  0
  -13.7005   -2.4612  -23.3990 N   0  0  0  0  0  0  0  0  0  0  0  0
  -13.3329   -3.0831  -24.1127 H   0  0  0  0  0  0  0  0  0  0  0  0
  -15.0433   -1.1792  -24.4803 H   0  0  0  0  0  0  0  0  0  0  0  0
  -15.4794   -0.1870  -22.1081 H   0  0  0  0  0  0  0  0  0  0  0  0
  -14.1087   -1.3574  -20.3698 H   0  0  0  0  0  0  0  0  0  0  0  0
  -12.9330   -4.6051  -21.8864 H   0  0  0  0  0  0  0  0  0  0  0  0
  -12.4554   -3.6600  -20.5007 H   0  0  0  0  0  0  0  0  0  0  0  0
  -10.9339   -4.5640  -23.1927 C   0  0  0  0  0  0  0  0  0  0  0  0
  -11.8543   -5.2488  -23.6082 O   0  0  0  0  0  0  0  0  0  0  0  0
   -9.5689   -4.6712  -23.7891 C   0  0  0  0  0  0  0  0  0  0  0  0
   -9.3647   -5.6531  -24.7593 C   0  0  0  0  0  0  0  0  0  0  0  0
   -8.1212   -5.8359  -25.3292 C   0  0  0  0  0  0  0  0  0  0  0  0
   -7.0884   -5.0131  -24.9011 C   0  0  0  0  0  0  0  0  0  0  0  0
   -5.8806   -5.1806  -25.4619 F   0  0  0  0  0  0  0  0  0  0  0  0
   -7.2596   -4.0378  -23.9389 C   0  0  0  0  0  0  0  0  0  0  0  0
   -8.5266   -3.8448  -23.3695 C   0  0  0  0  0  0  0  0  0  0  0  0
   -6.3979   -3.4529  -23.6398 H   0  0  0  0  0  0  0  0  0  0  0  0
   -7.9289   -6.5893  -26.0859 H   0  0  0  0  0  0  0  0  0  0  0  0
  -10.2106   -6.2730  -25.0347 H   0  0  0  0  0  0  0  0  0  0  0  0
   -9.6259   -3.8575  -20.7282 H   0  0  0  0  0  0  0  0  0  0  0  0
  -10.3453   -2.2476  -20.9165 H   0  0  0  0  0  0  0  0  0  0  0  0
   -7.8830    0.4917  -22.2709 H   0  0  0  0  0  0  0  0  0  0  0  0
   -9.1226   -0.1093  -21.1467 H   0  0  0  0  0  0  0  0  0  0  0  0
   -8.2302   -1.2986  -23.8220 H   0  0  0  0  0  0  0  0  0  0  0  0
  -11.0522   -1.0136  -22.6229 H   0  0  0  0  0  0  0  0  0  0  0  0
  -10.6453   -1.6632  -24.2136 H   0  0  0  0  0  0  0  0  0  0  0  0
  -10.3405    0.0520  -23.8496 H   0  0  0  0  0  0  0  0  0  0  0  0
  1  2  1  0
  2  3  1  0
  3  4  1  0
  4  5  1  0
  5  6  2  0
  6  7  1  0
  7  8  2  0
  8  9  1  0
  9 10  2  0
 10 11  1  0
 11 12  2  0
 12 13  1  0
 13 14  2  0
 13 15  1  0
 12 16  1  0
 11 17  1  0
 10 18  1  0
  8 19  1  0
  6 20  1  0
  4 21  1  0
 21 22  2  0
 21 23  1  0
 23 24  1  1
 24 25  1  0
 25 26  1  0
 26 27  1  0
 27 28  2  0
 28 29  1  0
 29 30  2  0
 30 31  1  0
 31 32  1  0
 30 33  1  0
 29 34  1  0
 28 35  1  0
 26 36  1  0
 26 37  1  0
 25 38  1  0
 38 39  2  0
 38 40  1  0
 40 41  2  0
 41 42  1  0
 42 43  2  0
 43 44  1  0
 43 45  1  0
 45 46  2  0
 45 47  1  0
 42 48  1  0
 41 49  1  0
 24 50  1  0
 24 51  1  0
  3 52  1  0
  3 53  1  0
  2 54  1  6
  1 55  1  0
  1 56  1  0
  1 57  1  0
 23  2  1  0
 31 27  1  0
 46 40  1  0
 14  5  1  0
 46 23  1  0
 14  9  1  0
M  CHG  1  29   1
M  END
>  <cnnaffinities>  (11) 
[6.72958]

>  <score>  (11) 
6.72958

>  <index>  (11) 
10

>  <Smiles>  (11) 
C([C@]1(C(N(c2c(nc(c3c(c(c(c(c23)[H])[H])[H])[H])[H])[H])C(=O)[C@]21C(N(C(c1c([n+](c(n1[H])[H])[H])[H])([H])[H])C(=O)c1c(c(c(F)c(c21)[H])[H])[H])([H])[H])([H])[H])[H])([H])([H])[H]

>  <h>  (11) 
<NA>

>  <Training>  (11) 
True

>  <Success>  (11) 
True

>  <enamine_searched>  (11) 
False

>  <enamine_id>  (11) 
nan

$$$$

     RDKit          3D

 48 52  0  0  0  0  0  0  0  0999 V2000
   -9.6807   -0.9307  -24.0221 C   0  0  0  0  0  0  0  0  0  0  0  0
   -8.6803   -1.3718  -23.0793 N   0  0  0  0  0  0  0  0  0  0  0  0
   -8.4406   -0.7220  -21.8928 C   0  0  0  0  0  0  0  0  0  0  0  0
   -9.0217    0.2411  -21.4462 O   0  0  0  0  0  0  0  0  0  0  0  0
   -7.3665   -1.3934  -21.2805 N   0  0  0  0  0  0  0  0  0  0  0  0
   -6.5883   -0.8256  -20.2228 C   0  0  0  0  0  0  0  0  0  0  0  0
   -6.9091   -1.0613  -18.9116 C   0  0  0  0  0  0  0  0  0  0  0  0
   -6.2139   -0.5584  -17.8604 N   0  0  0  0  0  0  0  0  0  0  0  0
   -5.1773    0.2010  -18.1035 C   0  0  0  0  0  0  0  0  0  0  0  0
   -4.7244    0.5226  -19.4105 C   0  0  0  0  0  0  0  0  0  0  0  0
   -3.5949    1.3520  -19.6372 C   0  0  0  0  0  0  0  0  0  0  0  0
   -3.2031    1.6503  -20.9127 C   0  0  0  0  0  0  0  0  0  0  0  0
   -3.9269    1.1330  -22.0100 C   0  0  0  0  0  0  0  0  0  0  0  0
   -5.0190    0.3285  -21.8121 C   0  0  0  0  0  0  0  0  0  0  0  0
   -5.4476   -0.0016  -20.5023 C   0  0  0  0  0  0  0  0  0  0  0  0
   -5.5764   -0.0595  -22.6560 H   0  0  0  0  0  0  0  0  0  0  0  0
   -3.6257    1.3770  -23.0210 H   0  0  0  0  0  0  0  0  0  0  0  0
   -2.3518    2.3003  -21.0908 H   0  0  0  0  0  0  0  0  0  0  0  0
   -3.0741    1.7630  -18.7782 H   0  0  0  0  0  0  0  0  0  0  0  0
   -4.6401    0.6011  -17.2436 H   0  0  0  0  0  0  0  0  0  0  0  0
   -7.7581   -1.6832  -18.6411 H   0  0  0  0  0  0  0  0  0  0  0  0
   -6.9225   -2.4599  -22.0695 C   0  0  0  0  0  0  0  0  0  0  0  0
   -6.0088   -3.1918  -21.7938 O   0  0  0  0  0  0  0  0  0  0  0  0
   -7.7877   -2.4704  -23.3266 C   0  0  0  0  0  0  0  0  0  0  0  0
   -7.0003   -2.5105  -24.6629 C   0  0  0  0  0  0  0  0  0  0  0  0
   -7.5812   -3.8565  -24.9796 N   0  0  0  0  0  0  0  0  0  0  0  0
   -8.4207   -3.9155  -26.4419 S   0  0  0  0  0  0  0  0  0  0  0  0
   -9.4705   -2.8991  -26.4038 O   0  0  0  0  0  0  0  0  0  0  0  0
   -7.4265   -3.9068  -27.5016 O   0  0  0  0  0  0  0  0  0  0  0  0
   -9.2586   -5.4699  -26.4387 C   0  0  0  0  0  0  0  0  0  0  0  0
   -8.6668   -6.6253  -25.9498 C   0  0  0  0  0  0  0  0  0  0  0  0
   -9.3682   -7.8240  -26.0413 C   0  0  0  0  0  0  0  0  0  0  0  0
  -10.6292   -7.8759  -26.6310 C   0  0  0  0  0  0  0  0  0  0  0  0
  -11.2038   -6.7049  -27.1198 C   0  0  0  0  0  0  0  0  0  0  0  0
  -10.5181   -5.5067  -27.0257 C   0  0  0  0  0  0  0  0  0  0  0  0
  -10.9586   -4.6045  -27.4235 H   0  0  0  0  0  0  0  0  0  0  0  0
  -12.1712   -6.6731  -27.6041 H   0  0  0  0  0  0  0  0  0  0  0  0
  -11.1342   -8.8354  -26.7301 H   0  0  0  0  0  0  0  0  0  0  0  0
   -8.9160   -8.7366  -25.6786 H   0  0  0  0  0  0  0  0  0  0  0  0
   -7.6670   -6.5855  -25.5293 H   0  0  0  0  0  0  0  0  0  0  0  0
   -8.3911   -3.8388  -23.7362 C   0  0  0  0  0  0  0  0  0  0  0  0
   -9.4798   -3.8599  -23.8741 H   0  0  0  0  0  0  0  0  0  0  0  0
   -8.0861   -4.6555  -23.0827 H   0  0  0  0  0  0  0  0  0  0  0  0
   -5.9206   -2.5879  -24.5349 H   0  0  0  0  0  0  0  0  0  0  0  0
   -7.2308   -1.7112  -25.3792 H   0  0  0  0  0  0  0  0  0  0  0  0
   -9.2141   -0.5563  -24.9420 H   0  0  0  0  0  0  0  0  0  0  0  0
  -10.3421   -1.7641  -24.2834 H   0  0  0  0  0  0  0  0  0  0  0  0
  -10.2359   -0.1264  -23.5353 H   0  0  0  0  0  0  0  0  0  0  0  0
  1  2  1  0
  2  3  1  0
  3  4  2  0
  3  5  1  0
  5  6  1  0
  6  7  2  0
  7  8  1  0
  8  9  2  0
  9 10  1  0
 10 11  2  0
 11 12  1  0
 12 13  2  0
 13 14  1  0
 14 15  2  0
 14 16  1  0
 13 17  1  0
 12 18  1  0
 11 19  1  0
  9 20  1  0
  7 21  1  0
  5 22  1  0
 22 23  2  0
 22 24  1  0
 24 25  1  0
 25 26  1  0
 26 27  1  0
 27 28  2  0
 27 29  2  0
 27 30  1  0
 30 31  2  0
 31 32  1  0
 32 33  2  0
 33 34  1  0
 34 35  2  0
 35 36  1  0
 34 37  1  0
 33 38  1  0
 32 39  1  0
 31 40  1  0
 26 41  1  0
 41 42  1  0
 41 43  1  0
 25 44  1  0
 25 45  1  0
  1 46  1  0
  1 47  1  0
  1 48  1  0
 24  2  1  0
 35 30  1  0
 15  6  1  0
 41 24  1  0
 15 10  1  0
M  END
>  <cnnaffinities>  (12) 
[5.50271, 5.50294, 5.50919]

>  <score>  (12) 
5.50271

>  <index>  (12) 
11

>  <Smiles>  (12) 
C(N1C(=O)N(c2c(nc(c3c(c(c(c(c23)[H])[H])[H])[H])[H])[H])C(=O)C21C(N(S(=O)(=O)c1c(c(c(c(c1[H])[H])[H])[H])[H])C2([H])[H])([H])[H])([H])([H])[H]

>  <h>  (12) 
<NA>

>  <Training>  (12) 
True

>  <Success>  (12) 
True

>  <enamine_searched>  (12) 
False

>  <enamine_id>  (12) 
nan

$$$$

     RDKit          3D

 76 82  0  0  0  0  0  0  0  0999 V2000
  -10.5453    1.8789  -24.0961 O   0  0  0  0  0  0  0  0  0  0  0  0
  -10.0695    0.7494  -24.0028 C   0  0  0  0  0  0  0  0  0  0  0  0
  -10.8699   -0.3856  -23.4577 C   0  0  0  0  0  0  0  0  0  0  0  0
  -12.2550   -0.2697  -23.4397 C   0  0  0  0  0  0  0  0  0  0  0  0
  -13.0533   -1.3027  -22.9946 C   0  0  0  0  0  0  0  0  0  0  0  0
  -12.4257   -2.4190  -22.4471 C   0  0  0  0  0  0  0  0  0  0  0  0
  -13.3781   -3.6839  -21.7330 Cl  0  0  0  0  0  0  0  0  0  0  0  0
  -11.0488   -2.5248  -22.3988 C   0  0  0  0  0  0  0  0  0  0  0  0
  -10.2586   -1.5489  -23.0011 C   0  0  0  0  0  0  0  0  0  0  0  0
   -8.7581   -1.6058  -22.9903 C   0  0  1  0  0  0  0  0  0  0  0  0
   -8.2390   -0.8694  -24.2574 C   0  0  0  0  0  0  0  0  0  0  0  0
   -8.7875    0.4656  -24.3652 N   0  0  0  0  0  0  0  0  0  0  0  0
   -7.9328    1.5866  -24.7066 C   0  0  0  0  0  0  0  0  0  0  0  0
   -7.8201    2.5456  -23.5159 C   0  0  0  0  0  0  0  0  0  0  0  0
   -7.3145    3.8836  -23.8764 N   0  0  0  0  0  4  0  0  0  0  0  0
   -8.3489    4.7708  -24.5291 C   0  0  0  0  0  0  0  0  0  0  0  0
   -7.6461    6.0635  -24.9776 C   0  0  0  0  0  0  0  0  0  0  0  0
   -6.4721    6.2455  -24.2114 O   0  0  0  0  0  0  0  0  0  0  0  0
   -5.4666    5.3310  -24.6108 C   0  0  0  0  0  0  0  0  0  0  0  0
   -6.0084    3.8878  -24.6145 C   0  0  0  0  0  0  0  0  0  0  0  0
   -5.3119    3.2124  -24.1100 H   0  0  0  0  0  0  0  0  0  0  0  0
   -6.1514    3.5210  -25.6350 H   0  0  0  0  0  0  0  0  0  0  0  0
   -5.0893    5.5964  -25.6098 H   0  0  0  0  0  0  0  0  0  0  0  0
   -4.6502    5.4464  -23.8916 H   0  0  0  0  0  0  0  0  0  0  0  0
   -7.3998    6.0280  -26.0503 H   0  0  0  0  0  0  0  0  0  0  0  0
   -8.2872    6.9320  -24.8062 H   0  0  0  0  0  0  0  0  0  0  0  0
   -8.8150    4.2553  -25.3726 H   0  0  0  0  0  0  0  0  0  0  0  0
   -9.1252    4.9824  -23.7851 H   0  0  0  0  0  0  0  0  0  0  0  0
   -7.1086    4.3657  -22.9857 H   0  0  0  0  0  0  0  0  0  0  0  0
   -7.1580    2.1072  -22.7628 H   0  0  0  0  0  0  0  0  0  0  0  0
   -8.8015    2.6780  -23.0559 H   0  0  0  0  0  0  0  0  0  0  0  0
   -6.9521    1.1744  -24.9807 H   0  0  0  0  0  0  0  0  0  0  0  0
   -8.3241    2.1094  -25.5901 H   0  0  0  0  0  0  0  0  0  0  0  0
   -8.5034   -1.4653  -25.1438 H   0  0  0  0  0  0  0  0  0  0  0  0
   -7.1468   -0.7742  -24.1907 H   0  0  0  0  0  0  0  0  0  0  0  0
   -8.3093   -0.8459  -21.7332 C   0  0  0  0  0  0  0  0  0  0  0  0
   -8.7623    0.1905  -21.2855 O   0  0  0  0  0  0  0  0  0  0  0  0
   -7.2767   -1.5393  -21.1649 N   0  0  0  0  0  0  0  0  0  0  0  0
   -6.5202   -0.9027  -20.1595 C   0  0  0  0  0  0  0  0  0  0  0  0
   -6.8781   -1.0722  -18.8503 C   0  0  0  0  0  0  0  0  0  0  0  0
   -6.2009   -0.5458  -17.8056 N   0  0  0  0  0  0  0  0  0  0  0  0
   -5.1635    0.2054  -18.0786 C   0  0  0  0  0  0  0  0  0  0  0  0
   -4.7218    0.5078  -19.3987 C   0  0  0  0  0  0  0  0  0  0  0  0
   -3.6078    1.3526  -19.6381 C   0  0  0  0  0  0  0  0  0  0  0  0
   -3.2333    1.6629  -20.9149 C   0  0  0  0  0  0  0  0  0  0  0  0
   -3.9599    1.1512  -22.0129 C   0  0  0  0  0  0  0  0  0  0  0  0
   -5.0339    0.3190  -21.8095 C   0  0  0  0  0  0  0  0  0  0  0  0
   -5.4340   -0.0373  -20.4884 C   0  0  0  0  0  0  0  0  0  0  0  0
   -5.5879   -0.0522  -22.6672 H   0  0  0  0  0  0  0  0  0  0  0  0
   -3.6634    1.4181  -23.0238 H   0  0  0  0  0  0  0  0  0  0  0  0
   -2.3841    2.3149  -21.0908 H   0  0  0  0  0  0  0  0  0  0  0  0
   -3.0833    1.7628  -18.7801 H   0  0  0  0  0  0  0  0  0  0  0  0
   -4.6165    0.6196  -17.2315 H   0  0  0  0  0  0  0  0  0  0  0  0
   -7.7563   -1.6691  -18.6166 H   0  0  0  0  0  0  0  0  0  0  0  0
   -6.8946   -2.7442  -21.8743 C   0  0  0  0  0  0  0  0  0  0  0  0
   -8.0929   -3.0015  -22.8081 C   0  0  2  0  0  0  0  0  0  0  0  0
   -7.6954   -3.7264  -24.1035 C   0  0  0  0  0  0  0  0  0  0  0  0
   -7.2787   -5.0918  -23.8479 N   0  0  0  0  0  0  0  0  0  0  0  0
   -6.7577   -5.8809  -24.8233 C   0  0  0  0  0  0  0  0  0  0  0  0
   -6.1526   -7.0131  -24.4045 N   0  0  0  0  0  0  0  0  0  0  0  0
   -5.7186   -7.8225  -25.3611 C   0  0  0  0  0  0  0  0  0  0  0  0
   -5.8631   -7.5484  -26.7189 C   0  0  0  0  0  0  0  0  0  0  0  0
   -6.4635   -6.3366  -27.0248 C   0  0  0  0  0  0  0  0  0  0  0  0
   -6.9029   -5.4862  -26.0986 N   0  0  0  0  0  0  0  0  0  0  0  0
   -6.5956   -6.0247  -28.0624 H   0  0  0  0  0  0  0  0  0  0  0  0
   -5.5396   -8.2362  -27.4911 H   0  0  0  0  0  0  0  0  0  0  0  0
   -5.2405   -8.7486  -25.0341 H   0  0  0  0  0  0  0  0  0  0  0  0
   -7.0741   -5.4068  -22.9129 H   0  0  0  0  0  0  0  0  0  0  0  0
   -6.8741   -3.1877  -24.6069 H   0  0  0  0  0  0  0  0  0  0  0  0
   -8.5431   -3.7573  -24.8005 H   0  0  0  0  0  0  0  0  0  0  0  0
   -8.7968   -3.6452  -22.2687 H   0  0  0  0  0  0  0  0  0  0  0  0
   -5.9653   -2.6001  -22.4489 H   0  0  0  0  0  0  0  0  0  0  0  0
   -6.7267   -3.5546  -21.1607 H   0  0  0  0  0  0  0  0  0  0  0  0
  -10.6121   -3.3226  -21.8111 H   0  0  0  0  0  0  0  0  0  0  0  0
  -14.1351   -1.2616  -23.0821 H   0  0  0  0  0  0  0  0  0  0  0  0
  -12.6619    0.6533  -23.8196 H   0  0  0  0  0  0  0  0  0  0  0  0
  1  2  2  0
  2  3  1  0
  3  4  2  0
  4  5  1  0
  5  6  2  0
  6  7  1  0
  6  8  1  0
  8  9  2  0
  9 10  1  0
 10 11  1  6
 11 12  1  0
 12 13  1  0
 13 14  1  0
 14 15  1  0
 15 16  1  0
 16 17  1  0
 17 18  1  0
 18 19  1  0
 19 20  1  0
 20 21  1  0
 20 22  1  0
 19 23  1  0
 19 24  1  0
 17 25  1  0
 17 26  1  0
 16 27  1  0
 16 28  1  0
 15 29  1  0
 14 30  1  0
 14 31  1  0
 13 32  1  0
 13 33  1  0
 11 34  1  0
 11 35  1  0
 10 36  1  0
 36 37  2  0
 36 38  1  0
 38 39  1  0
 39 40  2  0
 40 41  1  0
 41 42  2  0
 42 43  1  0
 43 44  2  0
 44 45  1  0
 45 46  2  0
 46 47  1  0
 47 48  2  0
 47 49  1  0
 46 50  1  0
 45 51  1  0
 44 52  1  0
 42 53  1  0
 40 54  1  0
 38 55  1  0
 55 56  1  0
 56 57  1  0
 57 58  1  0
 58 59  1  0
 59 60  2  0
 60 61  1  0
 61 62  2  0
 62 63  1  0
 63 64  2  0
 63 65  1  0
 62 66  1  0
 61 67  1  0
 58 68  1  0
 57 69  1  0
 57 70  1  0
 56 71  1  1
 55 72  1  0
 55 73  1  0
  8 74  1  0
  5 75  1  0
  4 76  1  0
 12  2  1  0
 20 15  1  0
 48 39  1  0
 64 59  1  0
  9  3  1  0
 56 10  1  0
 48 43  1  0
M  CHG  1  15   1
M  END
>  <cnnaffinities>  (13) 
[6.83163]

>  <score>  (13) 
6.83163

>  <index>  (13) 
12

>  <Smiles>  (13) 
O=C1c2c(c(c(Cl)c(c2[C@@]2(C(N1C(C([N+]1(C(C(OC(C1([H])[H])([H])[H])([H])[H])([H])[H])[H])([H])[H])([H])[H])([H])[H])C(=O)N(c1c(nc(c3c(c(c(c(c13)[H])[H])[H])[H])[H])[H])C([C@@]2(C(N(c1nc(c(c(n1)[H])[H])[H])[H])([H])[H])[H])([H])[H])[H])[H])[H]

>  <h>  (13) 
<NA>

>  <Training>  (13) 
True

>  <Success>  (13) 
True

>  <enamine_searched>  (13) 
False

>  <enamine_id>  (13) 
nan

$$$$

     RDKit          3D

 69 74  0  0  0  0  0  0  0  0999 V2000
   -4.9871   -4.0288  -19.4043 C   0  0  0  0  0  0  0  0  0  0  0  0
   -6.1267   -4.7249  -19.9690 N   0  0  0  0  0  0  0  0  0  0  0  0
   -5.9444   -5.7396  -20.8647 C   0  0  0  0  0  0  0  0  0  0  0  0
   -4.8523   -6.2478  -21.0605 O   0  0  0  0  0  0  0  0  0  0  0  0
   -7.2043   -6.2137  -21.6186 C   0  0  0  0  0  0  0  0  0  0  0  0
   -7.5580   -5.3058  -22.6964 N   0  0  0  0  0  0  0  0  0  0  0  0
   -8.4864   -4.2152  -22.4955 C   0  0  0  0  0  0  0  0  0  0  0  0
   -7.9271   -2.8611  -23.0106 C   0  0  2  0  0  0  0  0  0  0  0  0
   -6.7926   -2.3594  -22.0947 C   0  0  0  0  0  0  0  0  0  0  0  0
   -5.6333   -2.7293  -22.0835 O   0  0  0  0  0  0  0  0  0  0  0  0
   -7.3045   -1.4138  -21.2378 N   0  0  0  0  0  0  0  0  0  0  0  0
   -6.5516   -0.8411  -20.1991 C   0  0  0  0  0  0  0  0  0  0  0  0
   -6.9045   -1.0536  -18.8887 C   0  0  0  0  0  0  0  0  0  0  0  0
   -6.2162   -0.5648  -17.8325 N   0  0  0  0  0  0  0  0  0  0  0  0
   -5.1663    0.1803  -18.0846 C   0  0  0  0  0  0  0  0  0  0  0  0
   -4.7130    0.4968  -19.3972 C   0  0  0  0  0  0  0  0  0  0  0  0
   -3.5875    1.3310  -19.6216 C   0  0  0  0  0  0  0  0  0  0  0  0
   -3.2093    1.6602  -20.8944 C   0  0  0  0  0  0  0  0  0  0  0  0
   -3.9344    1.1712  -22.0035 C   0  0  0  0  0  0  0  0  0  0  0  0
   -5.0187    0.3519  -21.8152 C   0  0  0  0  0  0  0  0  0  0  0  0
   -5.4259   -0.0143  -20.4997 C   0  0  0  0  0  0  0  0  0  0  0  0
   -5.5734   -0.0273  -22.6677 H   0  0  0  0  0  0  0  0  0  0  0  0
   -3.6342    1.4493  -23.0095 H   0  0  0  0  0  0  0  0  0  0  0  0
   -2.3581    2.3141  -21.0588 H   0  0  0  0  0  0  0  0  0  0  0  0
   -3.0596    1.7231  -18.7574 H   0  0  0  0  0  0  0  0  0  0  0  0
   -4.6203    0.5738  -17.2295 H   0  0  0  0  0  0  0  0  0  0  0  0
   -7.7759   -1.6613  -18.6494 H   0  0  0  0  0  0  0  0  0  0  0  0
   -8.7255   -1.2026  -21.3955 C   0  0  0  0  0  0  0  0  0  0  0  0
   -8.9721   -1.7471  -22.8048 C   0  0  2  0  0  0  0  0  0  0  0  0
  -10.4105   -2.1565  -23.0281 C   0  0  0  0  0  0  0  0  0  0  0  0
  -11.2520   -0.9922  -23.0021 N   0  0  0  0  0  0  0  0  0  0  0  0
  -12.5843   -1.1202  -23.1331 C   0  0  0  0  0  0  0  0  0  0  0  0
  -13.4369   -0.0042  -23.0028 C   0  0  0  0  0  0  0  0  0  0  0  0
  -14.7718   -0.3065  -22.9761 C   0  0  0  0  0  0  0  0  0  0  0  0
  -15.2566   -1.5377  -23.1558 N   0  0  0  0  0  0  0  0  0  0  0  0
  -14.3829   -2.4944  -23.4221 C   0  0  0  0  0  0  0  0  0  0  0  0
  -14.9447   -3.8323  -23.8222 C   0  0  0  0  0  0  0  0  0  0  0  0
  -14.7786   -4.0156  -24.8895 H   0  0  0  0  0  0  0  0  0  0  0  0
  -14.4788   -4.6262  -23.2355 H   0  0  0  0  0  0  0  0  0  0  0  0
  -16.0213   -3.8616  -23.6879 H   0  0  0  0  0  0  0  0  0  0  0  0
  -13.0527   -2.3572  -23.3659 N   0  0  0  0  0  0  0  0  0  0  0  0
  -15.5114    0.4703  -22.8033 H   0  0  0  0  0  0  0  0  0  0  0  0
  -13.0698    1.0138  -22.8785 H   0  0  0  0  0  0  0  0  0  0  0  0
  -10.8491   -0.0721  -22.9207 H   0  0  0  0  0  0  0  0  0  0  0  0
  -10.5410   -2.7074  -23.9679 H   0  0  0  0  0  0  0  0  0  0  0  0
  -10.7331   -2.8507  -22.2406 H   0  0  0  0  0  0  0  0  0  0  0  0
   -8.7314   -0.9367  -23.4923 H   0  0  0  0  0  0  0  0  0  0  0  0
   -9.3112   -1.7587  -20.6501 H   0  0  0  0  0  0  0  0  0  0  0  0
   -8.9679   -0.1397  -21.2975 H   0  0  0  0  0  0  0  0  0  0  0  0
   -7.4375   -3.0587  -24.4288 C   0  0  0  0  0  0  0  0  0  0  0  0
   -7.3274   -1.9836  -25.3240 C   0  0  0  0  0  0  0  0  0  0  0  0
   -6.8142   -2.1827  -26.5929 C   0  0  0  0  0  0  0  0  0  0  0  0
   -6.6608   -0.8155  -27.6671 Cl  0  0  0  0  0  0  0  0  0  0  0  0
   -6.4034   -3.4447  -27.0201 C   0  0  0  0  0  0  0  0  0  0  0  0
   -6.4922   -4.5061  -26.1396 C   0  0  0  0  0  0  0  0  0  0  0  0
   -6.9873   -4.3178  -24.8494 C   0  0  0  0  0  0  0  0  0  0  0  0
   -6.9475   -5.4903  -23.9115 C   0  0  0  0  0  0  0  0  0  0  0  0
   -6.3816   -6.5344  -24.2011 O   0  0  0  0  0  0  0  0  0  0  0  0
   -6.1630   -5.5014  -26.4206 H   0  0  0  0  0  0  0  0  0  0  0  0
   -6.0103   -3.5781  -28.0217 H   0  0  0  0  0  0  0  0  0  0  0  0
   -7.6235   -0.9781  -25.0506 H   0  0  0  0  0  0  0  0  0  0  0  0
   -9.4143   -4.4326  -23.0422 H   0  0  0  0  0  0  0  0  0  0  0  0
   -8.7359   -4.1373  -21.4324 H   0  0  0  0  0  0  0  0  0  0  0  0
   -6.9724   -7.1754  -22.0762 H   0  0  0  0  0  0  0  0  0  0  0  0
   -8.0682   -6.3509  -20.9552 H   0  0  0  0  0  0  0  0  0  0  0  0
   -6.9783   -4.1808  -20.0363 H   0  0  0  0  0  0  0  0  0  0  0  0
   -4.2324   -4.7823  -19.2457 H   0  0  0  0  0  0  0  0  0  0  0  0
   -5.2572   -3.5571  -18.4508 H   0  0  0  0  0  0  0  0  0  0  0  0
   -4.6045   -3.2664  -20.0933 H   0  0  0  0  0  0  0  0  0  0  0  0
  1  2  1  0
  2  3  1  0
  3  4  2  0
  3  5  1  0
  5  6  1  0
  6  7  1  0
  8  7  1  1
  8  9  1  0
  9 10  2  0
  9 11  1  0
 11 12  1  0
 12 13  2  0
 13 14  1  0
 14 15  2  0
 15 16  1  0
 16 17  2  0
 17 18  1  0
 18 19  2  0
 19 20  1  0
 20 21  2  0
 20 22  1  0
 19 23  1  0
 18 24  1  0
 17 25  1  0
 15 26  1  0
 13 27  1  0
 11 28  1  0
 28 29  1  0
 29 30  1  0
 30 31  1  0
 31 32  1  0
 32 33  2  0
 33 34  1  0
 34 35  2  0
 35 36  1  0
 36 37  1  0
 37 38  1  0
 37 39  1  0
 37 40  1  0
 36 41  2  0
 34 42  1  0
 33 43  1  0
 31 44  1  0
 30 45  1  0
 30 46  1  0
 29 47  1  6
 28 48  1  0
 28 49  1  0
  8 50  1  0
 50 51  2  0
 51 52  1  0
 52 53  1  0
 52 54  2  0
 54 55  1  0
 55 56  2  0
 56 57  1  0
 57 58  2  0
 55 59  1  0
 54 60  1  0
 51 61  1  0
  7 62  1  0
  7 63  1  0
  5 64  1  0
  5 65  1  0
  2 66  1  0
  1 67  1  0
  1 68  1  0
  1 69  1  0
 57  6  1  0
 29  8  1  0
 41 32  1  0
 56 50  1  0
 21 12  1  0
 21 16  1  0
M  END
>  <cnnaffinities>  (14) 
[6.75948]

>  <score>  (14) 
6.75948

>  <index>  (14) 
13

>  <Smiles>  (14) 
C(N(C(=O)C(N1C([C@@]2(C(=O)N(c3c(nc(c4c(c(c(c(c34)[H])[H])[H])[H])[H])[H])C([C@@]2(C(N(c2c(c(nc(C([H])([H])[H])n2)[H])[H])[H])([H])[H])[H])([H])[H])c2c(c(Cl)c(c(c2C1=O)[H])[H])[H])([H])[H])([H])[H])[H])([H])([H])[H]

>  <h>  (14) 
<NA>

>  <Training>  (14) 
True

>  <Success>  (14) 
True

>  <enamine_searched>  (14) 
False

>  <enamine_id>  (14) 
nan

$$$$

     RDKit          3D

 73 78  0  0  0  0  0  0  0  0999 V2000
   -7.6071   -4.1322  -23.6699 C   0  0  0  0  0  0  0  0  0  0  0  0
   -8.0680   -3.2762  -22.4871 C   0  0  1  0  0  0  0  0  0  0  0  0
   -6.8531   -2.8034  -21.6752 C   0  0  0  0  0  0  0  0  0  0  0  0
   -7.2893   -1.5633  -21.0613 N   0  0  0  0  0  0  0  0  0  0  0  0
   -6.5396   -0.8713  -20.0652 C   0  0  0  0  0  0  0  0  0  0  0  0
   -6.8671   -1.0185  -18.7439 C   0  0  0  0  0  0  0  0  0  0  0  0
   -6.1700   -0.4762  -17.7123 N   0  0  0  0  0  0  0  0  0  0  0  0
   -5.1252    0.2586  -17.9979 C   0  0  0  0  0  0  0  0  0  0  0  0
   -4.6819    0.5259  -19.3246 C   0  0  0  0  0  0  0  0  0  0  0  0
   -3.5681    1.3628  -19.5938 C   0  0  0  0  0  0  0  0  0  0  0  0
   -3.2199    1.6611  -20.8813 C   0  0  0  0  0  0  0  0  0  0  0  0
   -3.9649    1.1310  -21.9560 C   0  0  0  0  0  0  0  0  0  0  0  0
   -5.0289    0.2951  -21.7238 C   0  0  0  0  0  0  0  0  0  0  0  0
   -5.4163   -0.0361  -20.3979 C   0  0  0  0  0  0  0  0  0  0  0  0
   -5.6087   -0.0988  -22.5534 H   0  0  0  0  0  0  0  0  0  0  0  0
   -3.6987    1.3980  -22.9728 H   0  0  0  0  0  0  0  0  0  0  0  0
   -2.3856    2.3260  -21.0839 H   0  0  0  0  0  0  0  0  0  0  0  0
   -3.0264    1.7923  -18.7563 H   0  0  0  0  0  0  0  0  0  0  0  0
   -4.5769    0.6935  -17.1601 H   0  0  0  0  0  0  0  0  0  0  0  0
   -7.7353   -1.6118  -18.4637 H   0  0  0  0  0  0  0  0  0  0  0  0
   -8.4933   -1.0959  -21.5462 C   0  0  0  0  0  0  0  0  0  0  0  0
   -9.0700   -0.1191  -21.1056 O   0  0  0  0  0  0  0  0  0  0  0  0
   -8.8933   -1.9710  -22.7574 C   0  0  1  0  0  0  0  0  0  0  0  0
   -8.4677   -1.1811  -24.0207 C   0  0  0  0  0  0  0  0  0  0  0  0
   -8.8209   -1.8375  -25.2752 N   0  0  0  0  0  0  0  0  0  0  0  0
   -8.3611   -1.1389  -26.4862 C   0  0  0  0  0  0  0  0  0  0  0  0
   -7.9127   -2.0136  -27.6645 C   0  0  0  0  0  0  0  0  0  0  0  0
   -6.9307   -3.0761  -27.2955 N   0  0  0  0  0  4  0  0  0  0  0  0
   -6.8914   -4.1715  -28.3458 C   0  0  0  0  0  0  0  0  0  0  0  0
   -5.9317   -5.2876  -27.9412 C   0  0  0  0  0  0  0  0  0  0  0  0
   -4.5697   -4.7969  -27.6820 N   0  0  0  0  0  0  0  0  0  0  0  0
   -3.6168   -4.5804  -29.0582 S   0  0  0  0  0  0  0  0  0  0  0  0
   -3.8599   -3.2648  -29.6420 O   0  0  0  0  0  0  0  0  0  0  0  0
   -3.7610   -5.7680  -29.8873 O   0  0  0  0  0  0  0  0  0  0  0  0
   -1.9666   -4.5824  -28.3881 C   0  0  0  0  0  0  0  0  0  0  0  0
   -1.8598   -5.4311  -27.7072 H   0  0  0  0  0  0  0  0  0  0  0  0
   -1.7592   -3.6378  -27.8771 H   0  0  0  0  0  0  0  0  0  0  0  0
   -1.2888   -4.6995  -29.2375 H   0  0  0  0  0  0  0  0  0  0  0  0
   -4.5745   -3.6944  -26.7121 C   0  0  0  0  0  0  0  0  0  0  0  0
   -5.5235   -2.5539  -27.0795 C   0  0  0  0  0  0  0  0  0  0  0  0
   -5.1778   -2.0828  -28.0049 H   0  0  0  0  0  0  0  0  0  0  0  0
   -5.5261   -1.8053  -26.2844 H   0  0  0  0  0  0  0  0  0  0  0  0
   -3.5581   -3.3199  -26.5814 H   0  0  0  0  0  0  0  0  0  0  0  0
   -4.8787   -4.1339  -25.7538 H   0  0  0  0  0  0  0  0  0  0  0  0
   -6.2806   -5.7542  -27.0109 H   0  0  0  0  0  0  0  0  0  0  0  0
   -5.8756   -6.0538  -28.7172 H   0  0  0  0  0  0  0  0  0  0  0  0
   -7.9016   -4.5715  -28.4735 H   0  0  0  0  0  0  0  0  0  0  0  0
   -6.5743   -3.7346  -29.3037 H   0  0  0  0  0  0  0  0  0  0  0  0
   -7.2896   -3.4770  -26.4019 H   0  0  0  0  0  0  0  0  0  0  0  0
   -7.4703   -1.3551  -28.4317 H   0  0  0  0  0  0  0  0  0  0  0  0
   -8.7797   -2.5024  -28.1117 H   0  0  0  0  0  0  0  0  0  0  0  0
   -9.1477   -0.4737  -26.8655 H   0  0  0  0  0  0  0  0  0  0  0  0
   -7.5268   -0.5051  -26.1821 H   0  0  0  0  0  0  0  0  0  0  0  0
  -10.0765   -2.4116  -25.3709 C   0  0  0  0  0  0  0  0  0  0  0  0
  -10.4424   -2.9283  -26.4165 O   0  0  0  0  0  0  0  0  0  0  0  0
  -10.9559   -2.3118  -24.1425 C   0  0  0  0  0  0  0  0  0  0  0  0
  -12.3468   -2.3180  -24.2711 C   0  0  0  0  0  0  0  0  0  0  0  0
  -13.1888   -2.4114  -23.1809 C   0  0  0  0  0  0  0  0  0  0  0  0
  -12.5978   -2.4181  -21.9171 C   0  0  0  0  0  0  0  0  0  0  0  0
  -13.6250   -2.7217  -20.5471 Cl  0  0  0  0  0  0  0  0  0  0  0  0
  -11.2358   -2.2180  -21.7574 C   0  0  0  0  0  0  0  0  0  0  0  0
  -10.3864   -2.1813  -22.8740 C   0  0  0  0  0  0  0  0  0  0  0  0
  -10.8301   -2.0216  -20.7754 H   0  0  0  0  0  0  0  0  0  0  0  0
  -14.2671   -2.4774  -23.3108 H   0  0  0  0  0  0  0  0  0  0  0  0
  -12.7817   -2.2383  -25.2660 H   0  0  0  0  0  0  0  0  0  0  0  0
   -8.9467   -0.1934  -23.9459 H   0  0  0  0  0  0  0  0  0  0  0  0
   -7.3831   -1.0333  -24.0084 H   0  0  0  0  0  0  0  0  0  0  0  0
   -6.5575   -3.5407  -20.9184 H   0  0  0  0  0  0  0  0  0  0  0  0
   -5.9932   -2.6481  -22.3477 H   0  0  0  0  0  0  0  0  0  0  0  0
   -8.7084   -3.8930  -21.8420 H   0  0  0  0  0  0  0  0  0  0  0  0
   -6.9126   -3.5573  -24.2989 H   0  0  0  0  0  0  0  0  0  0  0  0
   -7.0639   -5.0032  -23.2791 H   0  0  0  0  0  0  0  0  0  0  0  0
   -8.4342   -4.4831  -24.2987 H   0  0  0  0  0  0  0  0  0  0  0  0
  1  2  1  0
  2  3  1  0
  3  4  1  0
  4  5  1  0
  5  6  2  0
  6  7  1  0
  7  8  2  0
  8  9  1  0
  9 10  2  0
 10 11  1  0
 11 12  2  0
 12 13  1  0
 13 14  2  0
 13 15  1  0
 12 16  1  0
 11 17  1  0
 10 18  1  0
  8 19  1  0
  6 20  1  0
  4 21  1  0
 21 22  2  0
 21 23  1  0
 23 24  1  6
 24 25  1  0
 25 26  1  0
 26 27  1  0
 27 28  1  0
 28 29  1  0
 29 30  1  0
 30 31  1  0
 31 32  1  0
 32 33  2  0
 32 34  2  0
 32 35  1  0
 35 36  1  0
 35 37  1  0
 35 38  1  0
 31 39  1  0
 39 40  1  0
 40 41  1  0
 40 42  1  0
 39 43  1  0
 39 44  1  0
 30 45  1  0
 30 46  1  0
 29 47  1  0
 29 48  1  0
 28 49  1  0
 27 50  1  0
 27 51  1  0
 26 52  1  0
 26 53  1  0
 25 54  1  0
 54 55  2  0
 54 56  1  0
 56 57  2  0
 57 58  1  0
 58 59  2  0
 59 60  1  0
 59 61  1  0
 61 62  2  0
 61 63  1  0
 58 64  1  0
 57 65  1  0
 24 66  1  0
 24 67  1  0
  3 68  1  0
  3 69  1  0
  2 70  1  1
  1 71  1  0
  1 72  1  0
  1 73  1  0
 23  2  1  0
 40 28  1  0
 62 56  1  0
 14  5  1  0
 62 23  1  0
 14  9  1  0
M  CHG  1  28   1
M  END
>  <cnnaffinities>  (15) 
[6.7295, 6.16509]

>  <score>  (15) 
6.7295

>  <index>  (15) 
14

>  <Smiles>  (15) 
C([C@]1(C(N(c2c(nc(c3c(c(c(c(c23)[H])[H])[H])[H])[H])[H])C(=O)[C@]21C(N(C(C([N+]1(C(C(N(S(=O)(=O)C([H])([H])[H])C(C1([H])[H])([H])[H])([H])[H])([H])[H])[H])([H])[H])([H])[H])C(=O)c1c(c(c(Cl)c(c21)[H])[H])[H])([H])[H])([H])[H])[H])([H])([H])[H]

>  <h>  (15) 
<NA>

>  <Training>  (15) 
True

>  <Success>  (15) 
True

>  <enamine_searched>  (15) 
False

>  <enamine_id>  (15) 
nan

$$$$

     RDKit          3D

 63 68  0  0  0  0  0  0  0  0999 V2000
   -7.6100    3.2374  -21.8326 C   0  0  0  0  0  0  0  0  0  0  0  0
   -8.6972    2.7611  -22.6640 N   0  0  0  0  0  0  0  0  0  0  0  0
   -8.3292    1.9904  -23.7185 C   0  0  0  0  0  0  0  0  0  0  0  0
   -7.1516    1.7633  -23.9677 O   0  0  0  0  0  0  0  0  0  0  0  0
   -9.4285    1.3913  -24.5855 C   0  0  0  0  0  0  0  0  0  0  0  0
   -9.9200    0.1845  -23.9572 N   0  0  0  0  0  0  0  0  0  0  0  0
   -9.1050   -1.0226  -23.9629 C   0  0  0  0  0  0  0  0  0  0  0  0
   -9.2431   -1.7989  -22.6221 C   0  0  2  0  0  0  0  0  0  0  0  0
   -8.6516   -0.9293  -21.4862 C   0  0  0  0  0  0  0  0  0  0  0  0
   -9.1712    0.0350  -20.9619 O   0  0  0  0  0  0  0  0  0  0  0  0
   -7.3945   -1.4075  -21.1861 N   0  0  0  0  0  0  0  0  0  0  0  0
   -6.6037   -0.8188  -20.1715 C   0  0  0  0  0  0  0  0  0  0  0  0
   -6.9154   -1.0421  -18.8538 C   0  0  0  0  0  0  0  0  0  0  0  0
   -6.2070   -0.5516  -17.8111 N   0  0  0  0  0  0  0  0  0  0  0  0
   -5.1691    0.1987  -18.0844 C   0  0  0  0  0  0  0  0  0  0  0  0
   -4.7383    0.5163  -19.4024 C   0  0  0  0  0  0  0  0  0  0  0  0
   -3.6166    1.3510  -19.6448 C   0  0  0  0  0  0  0  0  0  0  0  0
   -3.2483    1.6614  -20.9237 C   0  0  0  0  0  0  0  0  0  0  0  0
   -3.9833    1.1588  -22.0181 C   0  0  0  0  0  0  0  0  0  0  0  0
   -5.0747    0.3468  -21.8129 C   0  0  0  0  0  0  0  0  0  0  0  0
   -5.4746   -0.0031  -20.4939 C   0  0  0  0  0  0  0  0  0  0  0  0
   -5.6528    0.0049  -22.6665 H   0  0  0  0  0  0  0  0  0  0  0  0
   -3.6848    1.4171  -23.0293 H   0  0  0  0  0  0  0  0  0  0  0  0
   -2.3942    2.3072  -21.1019 H   0  0  0  0  0  0  0  0  0  0  0  0
   -3.0809    1.7524  -18.7897 H   0  0  0  0  0  0  0  0  0  0  0  0
   -4.6059    0.5999  -17.2409 H   0  0  0  0  0  0  0  0  0  0  0  0
   -7.7772   -1.6577  -18.6071 H   0  0  0  0  0  0  0  0  0  0  0  0
   -6.9968   -2.5663  -21.9611 C   0  0  0  0  0  0  0  0  0  0  0  0
   -8.3290   -3.0514  -22.5598 C   0  0  2  0  0  0  0  0  0  0  0  0
   -8.1405   -3.8122  -23.8775 C   0  0  0  0  0  0  0  0  0  0  0  0
   -7.4098   -5.0504  -23.6832 N   0  0  0  0  0  0  0  0  0  0  0  0
   -6.0742   -5.2394  -23.7815 C   0  0  0  0  0  0  0  0  0  0  0  0
   -5.8291   -6.5495  -23.4424 C   0  0  0  0  0  0  0  0  0  0  0  0
   -7.1023   -7.0720  -23.1446 C   0  0  0  0  0  0  0  0  0  0  0  0
   -8.0528   -6.1542  -23.2791 N   0  0  0  0  0  0  0  0  0  0  0  0
   -7.3652   -8.0815  -22.8448 H   0  0  0  0  0  0  0  0  0  0  0  0
   -4.8777   -7.0599  -23.4193 H   0  0  0  0  0  0  0  0  0  0  0  0
   -5.4042   -4.4427  -24.0822 H   0  0  0  0  0  0  0  0  0  0  0  0
   -7.5852   -3.1973  -24.5946 H   0  0  0  0  0  0  0  0  0  0  0  0
   -9.1058   -4.0699  -24.3201 H   0  0  0  0  0  0  0  0  0  0  0  0
   -8.7590   -3.7531  -21.8404 H   0  0  0  0  0  0  0  0  0  0  0  0
   -6.5397   -3.3257  -21.3204 H   0  0  0  0  0  0  0  0  0  0  0  0
   -6.2662   -2.3073  -22.7472 H   0  0  0  0  0  0  0  0  0  0  0  0
  -10.7248   -2.0279  -22.3961 C   0  0  0  0  0  0  0  0  0  0  0  0
  -11.2200   -3.1051  -21.6570 C   0  0  0  0  0  0  0  0  0  0  0  0
  -12.5767   -3.1837  -21.3970 C   0  0  0  0  0  0  0  0  0  0  0  0
  -13.1610   -4.3230  -20.2355 Cl  0  0  0  0  0  0  0  0  0  0  0  0
  -13.5055   -2.3103  -21.9528 C   0  0  0  0  0  0  0  0  0  0  0  0
  -13.0198   -1.2434  -22.6744 C   0  0  0  0  0  0  0  0  0  0  0  0
  -11.6467   -1.0537  -22.8135 C   0  0  0  0  0  0  0  0  0  0  0  0
  -11.1512    0.2377  -23.3842 C   0  0  0  0  0  0  0  0  0  0  0  0
  -11.7889    1.2822  -23.3228 O   0  0  0  0  0  0  0  0  0  0  0  0
  -13.7048   -0.5308  -23.1152 H   0  0  0  0  0  0  0  0  0  0  0  0
  -14.5655   -2.4521  -21.7561 H   0  0  0  0  0  0  0  0  0  0  0  0
  -10.5783   -3.8592  -21.2122 H   0  0  0  0  0  0  0  0  0  0  0  0
   -8.0629   -0.7279  -24.1248 H   0  0  0  0  0  0  0  0  0  0  0  0
   -9.4205   -1.6661  -24.7948 H   0  0  0  0  0  0  0  0  0  0  0  0
  -10.2840    2.0611  -24.7191 H   0  0  0  0  0  0  0  0  0  0  0  0
   -9.0074    1.1458  -25.5647 H   0  0  0  0  0  0  0  0  0  0  0  0
   -9.6035    2.6755  -22.2152 H   0  0  0  0  0  0  0  0  0  0  0  0
   -7.9779    3.9457  -21.0892 H   0  0  0  0  0  0  0  0  0  0  0  0
   -6.9012    3.7799  -22.4549 H   0  0  0  0  0  0  0  0  0  0  0  0
   -7.0716    2.3896  -21.3788 H   0  0  0  0  0  0  0  0  0  0  0  0
  1  2  1  0
  2  3  1  0
  3  4  2  0
  3  5  1  0
  5  6  1  0
  6  7  1  0
  8  7  1  6
  8  9  1  0
  9 10  2  0
  9 11  1  0
 11 12  1  0
 12 13  2  0
 13 14  1  0
 14 15  2  0
 15 16  1  0
 16 17  2  0
 17 18  1  0
 18 19  2  0
 19 20  1  0
 20 21  2  0
 20 22  1  0
 19 23  1  0
 18 24  1  0
 17 25  1  0
 15 26  1  0
 13 27  1  0
 11 28  1  0
 28 29  1  0
 29 30  1  0
 30 31  1  0
 31 32  1  0
 32 33  2  0
 33 34  1  0
 34 35  2  0
 34 36  1  0
 33 37  1  0
 32 38  1  0
 30 39  1  0
 30 40  1  0
 29 41  1  1
 28 42  1  0
 28 43  1  0
  8 44  1  0
 44 45  2  0
 45 46  1  0
 46 47  1  0
 46 48  2  0
 48 49  1  0
 49 50  2  0
 50 51  1  0
 51 52  2  0
 49 53  1  0
 48 54  1  0
 45 55  1  0
  7 56  1  0
  7 57  1  0
  5 58  1  0
  5 59  1  0
  2 60  1  0
  1 61  1  0
  1 62  1  0
  1 63  1  0
 51  6  1  0
 29  8  1  0
 35 31  1  0
 50 44  1  0
 21 12  1  0
 21 16  1  0
M  END
>  <cnnaffinities>  (16) 
[6.71191]

>  <score>  (16) 
6.71191

>  <index>  (16) 
15

>  <Smiles>  (16) 
C(N(C(=O)C(N1C([C@@]2(C(=O)N(c3c(nc(c4c(c(c(c(c34)[H])[H])[H])[H])[H])[H])C([C@@]2(C(n2c(c(c(n2)[H])[H])[H])([H])[H])[H])([H])[H])c2c(c(Cl)c(c(c2C1=O)[H])[H])[H])([H])[H])([H])[H])[H])([H])([H])[H]

>  <h>  (16) 
<NA>

>  <Training>  (16) 
True

>  <Success>  (16) 
True

>  <enamine_searched>  (16) 
False

>  <enamine_id>  (16) 
nan

$$$$

     RDKit          3D

 61 66  0  0  0  0  0  0  0  0999 V2000
  -14.3911   -0.4166  -22.6794 C   0  0  0  0  0  0  0  0  0  0  0  0
  -13.4933   -1.3638  -22.0387 N   0  0  0  0  0  0  0  0  0  0  0  0
  -13.4517   -2.6501  -22.4925 C   0  0  0  0  0  0  0  0  0  0  0  0
  -14.1518   -3.0010  -23.4278 O   0  0  0  0  0  0  0  0  0  0  0  0
  -12.5037   -3.6477  -21.8004 C   0  0  0  0  0  0  0  0  0  0  0  0
  -11.1281   -3.6280  -22.3241 N   0  0  0  0  0  0  0  0  0  0  0  0
  -10.0113   -3.1597  -21.5049 C   0  0  0  0  0  0  0  0  0  0  0  0
   -8.7384   -2.8120  -22.3332 C   0  0  2  0  0  0  0  0  0  0  0  0
   -7.5613   -2.6837  -21.3507 C   0  0  0  0  0  0  0  0  0  0  0  0
   -6.9449   -3.5803  -20.8091 O   0  0  0  0  0  0  0  0  0  0  0  0
   -7.2797   -1.3471  -21.1776 N   0  0  0  0  0  0  0  0  0  0  0  0
   -6.4784   -0.8738  -20.1223 C   0  0  0  0  0  0  0  0  0  0  0  0
   -6.7903   -1.1282  -18.8132 C   0  0  0  0  0  0  0  0  0  0  0  0
   -6.1302   -0.5706  -17.7692 N   0  0  0  0  0  0  0  0  0  0  0  0
   -5.1301    0.2363  -18.0320 C   0  0  0  0  0  0  0  0  0  0  0  0
   -4.6810    0.5482  -19.3495 C   0  0  0  0  0  0  0  0  0  0  0  0
   -3.5714    1.3930  -19.6143 C   0  0  0  0  0  0  0  0  0  0  0  0
   -3.2081    1.6814  -20.9035 C   0  0  0  0  0  0  0  0  0  0  0  0
   -3.9293    1.1379  -21.9898 C   0  0  0  0  0  0  0  0  0  0  0  0
   -4.9886    0.3004  -21.7581 C   0  0  0  0  0  0  0  0  0  0  0  0
   -5.3878   -0.0089  -20.4321 C   0  0  0  0  0  0  0  0  0  0  0  0
   -5.5333   -0.1443  -22.5836 H   0  0  0  0  0  0  0  0  0  0  0  0
   -3.6467    1.3850  -23.0094 H   0  0  0  0  0  0  0  0  0  0  0  0
   -2.3641    2.3350  -21.1014 H   0  0  0  0  0  0  0  0  0  0  0  0
   -3.0253    1.8133  -18.7758 H   0  0  0  0  0  0  0  0  0  0  0  0
   -4.6182    0.6795  -17.1769 H   0  0  0  0  0  0  0  0  0  0  0  0
   -7.6185   -1.7892  -18.5583 H   0  0  0  0  0  0  0  0  0  0  0  0
   -8.2275   -0.4712  -21.8346 C   0  0  0  0  0  0  0  0  0  0  0  0
   -8.7977   -1.3681  -22.9298 C   0  0  2  0  0  0  0  0  0  0  0  0
  -10.1496   -0.8768  -23.4464 C   0  0  0  0  0  0  0  0  0  0  0  0
  -10.0786    0.4898  -23.9372 N   0  0  0  0  0  0  0  0  0  0  0  0
  -10.6303    1.5163  -23.3069 N   0  0  0  0  0  0  0  0  0  0  0  0
  -10.1394    2.5326  -23.9986 C   0  0  0  0  0  0  0  0  0  0  0  0
   -9.3457    2.1336  -25.0147 N   0  0  0  0  0  0  0  0  0  0  0  0
   -9.3137    0.8303  -24.9452 N   0  0  0  0  0  0  0  0  0  0  0  0
  -10.3457    3.5734  -23.7992 H   0  0  0  0  0  0  0  0  0  0  0  0
  -10.8976   -0.8336  -22.6686 H   0  0  0  0  0  0  0  0  0  0  0  0
  -10.5081   -1.5407  -24.2281 H   0  0  0  0  0  0  0  0  0  0  0  0
   -8.0980   -1.3664  -23.7728 H   0  0  0  0  0  0  0  0  0  0  0  0
   -8.9982   -0.1412  -21.1217 H   0  0  0  0  0  0  0  0  0  0  0  0
   -7.7331    0.4197  -22.2260 H   0  0  0  0  0  0  0  0  0  0  0  0
   -8.4526   -3.8917  -23.3597 C   0  0  0  0  0  0  0  0  0  0  0  0
   -7.1751   -4.0758  -23.9276 C   0  0  0  0  0  0  0  0  0  0  0  0
   -6.9806   -5.0355  -24.9098 C   0  0  0  0  0  0  0  0  0  0  0  0
   -5.4192   -5.2316  -25.6564 Cl  0  0  0  0  0  0  0  0  0  0  0  0
   -8.0208   -5.8607  -25.3353 C   0  0  0  0  0  0  0  0  0  0  0  0
   -9.2666   -5.6884  -24.7689 C   0  0  0  0  0  0  0  0  0  0  0  0
   -9.4866   -4.7126  -23.8004 C   0  0  0  0  0  0  0  0  0  0  0  0
  -10.8760   -4.5894  -23.2707 C   0  0  0  0  0  0  0  0  0  0  0  0
  -11.7560   -5.3237  -23.6698 O   0  0  0  0  0  0  0  0  0  0  0  0
  -10.1131   -6.2979  -25.0611 H   0  0  0  0  0  0  0  0  0  0  0  0
   -7.8495   -6.6244  -26.0870 H   0  0  0  0  0  0  0  0  0  0  0  0
   -6.3145   -3.5069  -23.5874 H   0  0  0  0  0  0  0  0  0  0  0  0
  -10.3383   -2.2708  -20.9522 H   0  0  0  0  0  0  0  0  0  0  0  0
   -9.7231   -3.9234  -20.7723 H   0  0  0  0  0  0  0  0  0  0  0  0
  -12.9334   -4.6132  -22.0810 H   0  0  0  0  0  0  0  0  0  0  0  0
  -12.4883   -3.5704  -20.7090 H   0  0  0  0  0  0  0  0  0  0  0  0
  -13.1520   -1.1388  -21.1179 H   0  0  0  0  0  0  0  0  0  0  0  0
  -15.4329   -0.7541  -22.6631 H   0  0  0  0  0  0  0  0  0  0  0  0
  -14.3123    0.5323  -22.1536 H   0  0  0  0  0  0  0  0  0  0  0  0
  -14.1044   -0.2525  -23.7216 H   0  0  0  0  0  0  0  0  0  0  0  0
  1  2  1  0
  2  3  1  0
  3  4  2  0
  3  5  1  0
  5  6  1  0
  6  7  1  0
  8  7  1  1
  8  9  1  0
  9 10  2  0
  9 11  1  0
 11 12  1  0
 12 13  2  0
 13 14  1  0
 14 15  2  0
 15 16  1  0
 16 17  2  0
 17 18  1  0
 18 19  2  0
 19 20  1  0
 20 21  2  0
 20 22  1  0
 19 23  1  0
 18 24  1  0
 17 25  1  0
 15 26  1  0
 13 27  1  0
 11 28  1  0
 28 29  1  0
 29 30  1  0
 30 31  1  0
 31 32  1  0
 32 33  2  0
 33 34  1  0
 34 35  2  0
 33 36  1  0
 30 37  1  0
 30 38  1  0
 29 39  1  6
 28 40  1  0
 28 41  1  0
  8 42  1  0
 42 43  2  0
 43 44  1  0
 44 45  1  0
 44 46  2  0
 46 47  1  0
 47 48  2  0
 48 49  1  0
 49 50  2  0
 47 51  1  0
 46 52  1  0
 43 53  1  0
  7 54  1  0
  7 55  1  0
  5 56  1  0
  5 57  1  0
  2 58  1  0
  1 59  1  0
  1 60  1  0
  1 61  1  0
 49  6  1  0
 29  8  1  0
 35 31  1  0
 48 42  1  0
 21 12  1  0
 21 16  1  0
M  END
>  <cnnaffinities>  (17) 
[6.68383, 6.57618]

>  <score>  (17) 
6.68383

>  <index>  (17) 
16

>  <Smiles>  (17) 
C(N(C(=O)C(N1C([C@@]2(C(=O)N(c3c(nc(c4c(c(c(c(c34)[H])[H])[H])[H])[H])[H])C([C@@]2(C(n2nc(nn2)[H])([H])[H])[H])([H])[H])c2c(c(Cl)c(c(c2C1=O)[H])[H])[H])([H])[H])([H])[H])[H])([H])([H])[H]

>  <h>  (17) 
<NA>

>  <Training>  (17) 
True

>  <Success>  (17) 
True

>  <enamine_searched>  (17) 
False

>  <enamine_id>  (17) 
nan

$$$$

     RDKit          3D

 38 41  0  0  0  0  0  0  0  0999 V2000
  -10.8197   -4.6832  -22.9160 C   0  0  0  0  0  0  0  0  0  0  0  0
  -10.5652   -3.4453  -23.7656 C   0  0  2  0  0  0  0  0  0  0  0  0
   -9.3922   -3.6603  -24.7366 C   0  0  0  0  0  0  0  0  0  0  0  0
   -8.0560   -3.7766  -23.9736 C   0  0  0  0  0  0  0  0  0  0  0  0
   -7.9725   -2.7831  -22.8967 C   0  0  0  0  0  0  0  0  0  0  0  0
   -6.8301   -2.4157  -22.1174 C   0  0  0  0  0  0  0  0  0  0  0  0
   -5.6823   -2.7915  -22.2018 O   0  0  0  0  0  1  0  0  0  0  0  0
   -7.3361   -1.4618  -21.1867 N   0  0  0  0  0  0  0  0  0  0  0  0
   -6.5725   -0.8359  -20.1737 C   0  0  0  0  0  0  0  0  0  0  0  0
   -6.8891   -1.0526  -18.8574 C   0  0  0  0  0  0  0  0  0  0  0  0
   -6.1916   -0.5443  -17.8163 N   0  0  0  0  0  0  0  0  0  0  0  0
   -5.1559    0.2141  -18.0819 C   0  0  0  0  0  0  0  0  0  0  0  0
   -4.7260    0.5304  -19.3981 C   0  0  0  0  0  0  0  0  0  0  0  0
   -3.5963    1.3598  -19.6301 C   0  0  0  0  0  0  0  0  0  0  0  0
   -3.2163    1.6676  -20.9107 C   0  0  0  0  0  0  0  0  0  0  0  0
   -3.9543    1.1638  -22.0033 C   0  0  0  0  0  0  0  0  0  0  0  0
   -5.0499    0.3606  -21.8013 C   0  0  0  0  0  0  0  0  0  0  0  0
   -5.4565    0.0045  -20.4854 C   0  0  0  0  0  0  0  0  0  0  0  0
   -5.6136   -0.0175  -22.6462 H   0  0  0  0  0  0  0  0  0  0  0  0
   -3.6556    1.4200  -23.0162 H   0  0  0  0  0  0  0  0  0  0  0  0
   -2.3646    2.3186  -21.0884 H   0  0  0  0  0  0  0  0  0  0  0  0
   -3.0648    1.7646  -18.7749 H   0  0  0  0  0  0  0  0  0  0  0  0
   -4.6111    0.6176  -17.2288 H   0  0  0  0  0  0  0  0  0  0  0  0
   -7.7398   -1.6726  -18.5905 H   0  0  0  0  0  0  0  0  0  0  0  0
   -8.6862   -1.1997  -21.4386 C   0  0  0  0  0  0  0  0  0  0  0  0
   -9.3950   -0.3496  -20.9509 O   0  0  0  0  0  0  0  0  0  0  0  0
   -9.0430   -2.1116  -22.4093 N   0  0  0  0  0  0  0  0  0  0  0  0
  -10.3759   -2.1781  -22.9586 C   0  0  0  0  0  0  0  0  0  0  0  0
  -10.5646   -1.3121  -23.6030 H   0  0  0  0  0  0  0  0  0  0  0  0
  -11.0996   -2.1486  -22.1429 H   0  0  0  0  0  0  0  0  0  0  0  0
   -7.2007   -3.6593  -24.6528 H   0  0  0  0  0  0  0  0  0  0  0  0
   -7.9396   -4.7815  -23.5365 H   0  0  0  0  0  0  0  0  0  0  0  0
   -9.5525   -4.5651  -25.3433 H   0  0  0  0  0  0  0  0  0  0  0  0
   -9.3423   -2.8129  -25.4313 H   0  0  0  0  0  0  0  0  0  0  0  0
  -11.4922   -3.2253  -24.2838 H   0  0  0  0  0  0  0  0  0  0  0  0
  -10.8915   -5.5241  -23.6140 H   0  0  0  0  0  0  0  0  0  0  0  0
  -10.0313   -4.8866  -22.1763 H   0  0  0  0  0  0  0  0  0  0  0  0
  -11.7754   -4.5881  -22.3870 H   0  0  0  0  0  0  0  0  0  0  0  0
  1  2  1  0
  2  3  1  0
  3  4  1  0
  4  5  1  0
  5  6  2  0
  6  7  1  0
  6  8  1  0
  8  9  1  0
  9 10  2  0
 10 11  1  0
 11 12  2  0
 12 13  1  0
 13 14  2  0
 14 15  1  0
 15 16  2  0
 16 17  1  0
 17 18  2  0
 17 19  1  0
 16 20  1  0
 15 21  1  0
 14 22  1  0
 12 23  1  0
 10 24  1  0
  8 25  1  0
 25 26  2  0
 25 27  1  0
 27 28  1  0
 28 29  1  0
 28 30  1  0
  4 31  1  0
  4 32  1  0
  3 33  1  0
  3 34  1  0
  2 35  1  6
  1 36  1  0
  1 37  1  0
  1 38  1  0
 28  2  1  0
 27  5  1  0
 18  9  1  0
 18 13  1  0
M  CHG  1   7  -1
M  END
>  <cnnaffinities>  (18) 
[4.69494, 5.08014, 5.19133]

>  <score>  (18) 
4.69494

>  <index>  (18) 
17

>  <Smiles>  (18) 
C([C@@]1(C(C(c2c([O-])n(c3c(nc(c4c(c(c(c(c34)[H])[H])[H])[H])[H])[H])c(=O)n2C1([H])[H])([H])[H])([H])[H])[H])([H])([H])[H]

>  <h>  (18) 
<NA>

>  <Training>  (18) 
True

>  <Success>  (18) 
True

>  <enamine_searched>  (18) 
False

>  <enamine_id>  (18) 
nan

$$$$

     RDKit          3D

 56 61  0  0  0  0  0  0  0  0999 V2000
  -10.2170   -2.9455  -22.0466 C   0  0  0  0  0  0  0  0  0  0  0  0
   -9.1670   -1.9964  -22.6460 C   0  0  1  0  0  0  0  0  0  0  0  0
   -8.7069   -0.9660  -21.5903 C   0  0  0  0  0  0  0  0  0  0  0  0
   -7.3942   -1.4197  -21.1951 N   0  0  0  0  0  0  0  0  0  0  0  0
   -6.6087   -0.8138  -20.1841 C   0  0  0  0  0  0  0  0  0  0  0  0
   -6.9285   -1.0206  -18.8675 C   0  0  0  0  0  0  0  0  0  0  0  0
   -6.2267   -0.5252  -17.8216 N   0  0  0  0  0  0  0  0  0  0  0  0
   -5.1789    0.2129  -18.0937 C   0  0  0  0  0  0  0  0  0  0  0  0
   -4.7433    0.5188  -19.4133 C   0  0  0  0  0  0  0  0  0  0  0  0
   -3.6098    1.3413  -19.6422 C   0  0  0  0  0  0  0  0  0  0  0  0
   -3.2328    1.6621  -20.9158 C   0  0  0  0  0  0  0  0  0  0  0  0
   -3.9691    1.1679  -22.0172 C   0  0  0  0  0  0  0  0  0  0  0  0
   -5.0596    0.3565  -21.8254 C   0  0  0  0  0  0  0  0  0  0  0  0
   -5.4760    0.0040  -20.5058 C   0  0  0  0  0  0  0  0  0  0  0  0
   -5.6068   -0.0249  -22.6878 H   0  0  0  0  0  0  0  0  0  0  0  0
   -3.6678    1.4407  -23.0242 H   0  0  0  0  0  0  0  0  0  0  0  0
   -2.3800    2.3129  -21.0872 H   0  0  0  0  0  0  0  0  0  0  0  0
   -3.0720    1.7284  -18.7806 H   0  0  0  0  0  0  0  0  0  0  0  0
   -4.6164    0.6117  -17.2485 H   0  0  0  0  0  0  0  0  0  0  0  0
   -7.7866   -1.6423  -18.6162 H   0  0  0  0  0  0  0  0  0  0  0  0
   -6.8521   -2.3728  -22.0209 C   0  0  0  0  0  0  0  0  0  0  0  0
   -5.7510   -2.8537  -21.8635 O   0  0  0  0  0  0  0  0  0  0  0  0
   -7.8517   -2.6850  -23.1548 C   0  0  1  0  0  0  0  0  0  0  0  0
   -8.0072   -4.2165  -23.3535 C   0  0  0  0  0  0  0  0  0  0  0  0
   -6.8282   -4.8473  -23.9386 N   0  0  0  0  0  0  0  0  0  0  0  0
   -6.4191   -6.1838  -23.4937 C   0  0  0  0  0  0  0  0  0  0  0  0
   -5.3514   -6.1450  -22.4932 C   0  0  0  0  0  0  0  0  0  0  0  0
   -3.8412   -6.2631  -22.8334 C   0  0  0  0  0  0  0  0  0  0  0  0
   -3.9994   -6.1274  -23.0278 C   0  0  0  0  0  0  0  0  0  0  0  0
   -4.8061   -5.8431  -20.4075 N   0  0  0  0  0  0  0  0  0  0  0  0
   -5.7834   -5.9872  -21.2011 N   0  0  0  0  0  0  0  0  0  0  0  0
   -5.2063   -5.6404  -19.4821 H   0  0  0  0  0  0  0  0  0  0  0  0
   -1.7297   -5.3872  -23.6074 H   0  0  0  0  0  0  0  0  0  0  0  0
   -3.0192   -5.6714  -23.4527 H   0  0  0  0  0  0  0  0  0  0  0  0
   -7.2909   -6.6748  -23.0514 H   0  0  0  0  0  0  0  0  0  0  0  0
   -6.1016   -6.7487  -24.3733 H   0  0  0  0  0  0  0  0  0  0  0  0
   -6.2345   -4.3149  -25.0513 C   0  0  0  0  0  0  0  0  0  0  0  0
   -5.4834   -4.9662  -25.7638 O   0  0  0  0  0  0  0  0  0  0  0  0
   -6.5688   -2.8731  -25.3492 C   0  0  0  0  0  0  0  0  0  0  0  0
   -6.0605   -2.3297  -26.5300 C   0  0  0  0  0  0  0  0  0  0  0  0
   -6.2845   -1.0068  -26.8567 C   0  0  0  0  0  0  0  0  0  0  0  0
   -7.0104   -0.2335  -25.9606 C   0  0  0  0  0  0  0  0  0  0  0  0
   -7.2413    1.0545  -26.2708 F   0  0  0  0  0  0  0  0  0  0  0  0
   -7.5181   -0.7395  -24.7779 C   0  0  0  0  0  0  0  0  0  0  0  0
   -7.3275   -2.0934  -24.4647 C   0  0  0  0  0  0  0  0  0  0  0  0
   -8.0785   -0.0643  -24.1391 H   0  0  0  0  0  0  0  0  0  0  0  0
   -5.9186   -0.5690  -27.7790 H   0  0  0  0  0  0  0  0  0  0  0  0
   -5.4765   -2.9764  -27.1755 H   0  0  0  0  0  0  0  0  0  0  0  0
   -8.8712   -4.3881  -24.0097 H   0  0  0  0  0  0  0  0  0  0  0  0
   -8.2150   -4.6972  -22.3956 H   0  0  0  0  0  0  0  0  0  0  0  0
   -9.3760   -0.9491  -20.7330 H   0  0  0  0  0  0  0  0  0  0  0  0
   -8.6723    0.0589  -21.9845 H   0  0  0  0  0  0  0  0  0  0  0  0
   -9.6533   -1.4864  -23.4848 H   0  0  0  0  0  0  0  0  0  0  0  0
  -11.0791   -2.3766  -21.6805 H   0  0  0  0  0  0  0  0  0  0  0  0
   -9.8158   -3.5170  -21.2019 H   0  0  0  0  0  0  0  0  0  0  0  0
  -10.5922   -3.6520  -22.7926 H   0  0  0  0  0  0  0  0  0  0  0  0
  1  2  1  0
  2  3  1  0
  3  4  1  0
  4  5  1  0
  5  6  2  0
  6  7  1  0
  7  8  2  0
  8  9  1  0
  9 10  2  0
 10 11  1  0
 11 12  2  0
 12 13  1  0
 13 14  2  0
 13 15  1  0
 12 16  1  0
 11 17  1  0
 10 18  1  0
  8 19  1  0
  6 20  1  0
  4 21  1  0
 21 22  2  0
 21 23  1  0
 23 24  1  6
 24 25  1  0
 25 26  1  0
 26 27  1  0
 27 28  1  0
 28 29  2  0
 29 30  1  0
 30 31  1  0
 30 32  1  0
 29 33  1  0
 28 34  1  0
 26 35  1  0
 26 36  1  0
 25 37  1  0
 37 38  2  0
 37 39  1  0
 39 40  2  0
 40 41  1  0
 41 42  2  0
 42 43  1  0
 42 44  1  0
 44 45  2  0
 44 46  1  0
 41 47  1  0
 40 48  1  0
 24 49  1  0
 24 50  1  0
  3 51  1  0
  3 52  1  0
  2 53  1  6
  1 54  1  0
  1 55  1  0
  1 56  1  0
 23  2  1  0
 31 27  2  0
 45 39  1  0
 14  5  1  0
 45 23  1  0
 14  9  1  0
M  END
>  <cnnaffinities>  (19) 
[6.00737]

>  <score>  (19) 
6.00737

>  <index>  (19) 
18

>  <Smiles>  (19) 
C([C@]1(C(N(c2c(nc(c3c(c(c(c(c23)[H])[H])[H])[H])[H])[H])C(=O)[C@]21C(N(C(c1c(c(n(n1)[H])[H])[H])([H])[H])C(=O)c1c(c(c(F)c(c21)[H])[H])[H])([H])[H])([H])[H])[H])([H])([H])[H]

>  <h>  (19) 
<NA>

>  <Training>  (19) 
True

>  <Success>  (19) 
True

>  <enamine_searched>  (19) 
False

>  <enamine_id>  (19) 
nan

$$$$

     RDKit          3D

 42 45  0  0  0  0  0  0  0  0999 V2000
   -9.0851   -0.0190  -20.7364 O   0  0  0  0  0  0  0  0  0  0  0  0
   -8.6191   -0.8986  -21.4346 C   0  0  0  0  0  0  0  0  0  0  0  0
   -9.3442   -1.5212  -22.6296 C   0  0  1  0  0  0  0  0  0  0  0  0
  -10.4657   -0.5839  -23.0131 C   0  0  0  0  0  0  0  0  0  0  0  0
  -10.1664    0.7666  -23.2276 C   0  0  0  0  0  0  0  0  0  0  0  0
  -11.1900    1.7000  -23.3537 C   0  0  0  0  0  0  0  0  0  0  0  0
  -12.5164    1.2578  -23.3654 C   0  0  0  0  0  0  0  0  0  0  0  0
  -13.7685    2.4446  -23.5579 Cl  0  0  0  0  0  0  0  0  0  0  0  0
  -12.8036   -0.1162  -23.3858 C   0  0  0  0  0  0  0  0  0  0  0  0
  -14.3786   -0.7141  -23.8078 Cl  0  0  0  0  0  0  0  0  0  0  0  0
  -11.7732   -1.0356  -23.1753 C   0  0  0  0  0  0  0  0  0  0  0  0
  -12.0050   -2.1008  -23.1905 H   0  0  0  0  0  0  0  0  0  0  0  0
  -10.9700    2.7662  -23.4587 H   0  0  0  0  0  0  0  0  0  0  0  0
   -9.1267    1.0852  -23.3068 H   0  0  0  0  0  0  0  0  0  0  0  0
   -8.3311   -1.7850  -23.7611 C   0  0  0  0  0  0  0  0  0  0  0  0
   -7.2228   -2.7573  -23.3376 C   0  0  2  0  0  0  0  0  0  0  0  0
   -7.5220   -4.1144  -23.6426 O   0  0  0  0  0  0  0  0  0  0  0  0
   -8.3913   -4.3243  -23.2759 H   0  0  0  0  0  0  0  0  0  0  0  0
   -6.9113   -2.6258  -21.8384 C   0  0  0  0  0  0  0  0  0  0  0  0
   -7.3432   -1.3687  -21.2571 N   0  0  0  0  0  0  0  0  0  0  0  0
   -6.5863   -0.8115  -20.2009 C   0  0  0  0  0  0  0  0  0  0  0  0
   -6.9194   -1.0562  -18.8940 C   0  0  0  0  0  0  0  0  0  0  0  0
   -6.2159   -0.5760  -17.8433 N   0  0  0  0  0  0  0  0  0  0  0  0
   -5.1777    0.1813  -18.0992 C   0  0  0  0  0  0  0  0  0  0  0  0
   -4.7264    0.5057  -19.4101 C   0  0  0  0  0  0  0  0  0  0  0  0
   -3.6021    1.3366  -19.6451 C   0  0  0  0  0  0  0  0  0  0  0  0
   -3.2163    1.6327  -20.9231 C   0  0  0  0  0  0  0  0  0  0  0  0
   -3.9333    1.1120  -22.0249 C   0  0  0  0  0  0  0  0  0  0  0  0
   -5.0206    0.3003  -21.8232 C   0  0  0  0  0  0  0  0  0  0  0  0
   -5.4430   -0.0132  -20.5039 C   0  0  0  0  0  0  0  0  0  0  0  0
   -5.5798   -0.0938  -22.6661 H   0  0  0  0  0  0  0  0  0  0  0  0
   -3.6299    1.3695  -23.0347 H   0  0  0  0  0  0  0  0  0  0  0  0
   -2.3675    2.2878  -21.0982 H   0  0  0  0  0  0  0  0  0  0  0  0
   -3.0828    1.7493  -18.7864 H   0  0  0  0  0  0  0  0  0  0  0  0
   -4.6353    0.5820  -17.2448 H   0  0  0  0  0  0  0  0  0  0  0  0
   -7.7924   -1.6581  -18.6444 H   0  0  0  0  0  0  0  0  0  0  0  0
   -7.3977   -3.4817  -21.3443 H   0  0  0  0  0  0  0  0  0  0  0  0
   -5.8390   -2.6921  -21.6468 H   0  0  0  0  0  0  0  0  0  0  0  0
   -6.3223   -2.5621  -23.9310 H   0  0  0  0  0  0  0  0  0  0  0  0
   -7.8835   -0.8299  -24.0662 H   0  0  0  0  0  0  0  0  0  0  0  0
   -8.8192   -2.2004  -24.6500 H   0  0  0  0  0  0  0  0  0  0  0  0
   -9.7541   -2.4920  -22.3090 H   0  0  0  0  0  0  0  0  0  0  0  0
  1  2  2  0
  2  3  1  0
  3  4  1  0
  4  5  2  0
  5  6  1  0
  6  7  2  0
  7  8  1  0
  7  9  1  0
  9 10  1  0
  9 11  2  0
 11 12  1  0
  6 13  1  0
  5 14  1  0
  3 15  1  0
 15 16  1  0
 16 17  1  0
 17 18  1  0
 16 19  1  0
 19 20  1  0
 20 21  1  0
 21 22  2  0
 22 23  1  0
 23 24  2  0
 24 25  1  0
 25 26  2  0
 26 27  1  0
 27 28  2  0
 28 29  1  0
 29 30  2  0
 29 31  1  0
 28 32  1  0
 27 33  1  0
 26 34  1  0
 24 35  1  0
 22 36  1  0
 19 37  1  0
 19 38  1  0
 16 39  1  6
 15 40  1  0
 15 41  1  0
  3 42  1  1
 20  2  1  0
 30 21  1  0
 11  4  1  0
 30 25  1  0
M  END
>  <cnnaffinities>  (20) 
[5.86832]

>  <score>  (20) 
5.86832

>  <index>  (20) 
19

>  <Smiles>  (20) 
O=C1[C@@](c2c(c(c(Cl)c(Cl)c2[H])[H])[H])(C([C@](O[H])(C(N1c1c(nc(c2c(c(c(c(c12)[H])[H])[H])[H])[H])[H])([H])[H])[H])([H])[H])[H]

>  <h>  (20) 
<NA>

>  <Training>  (20) 
True

>  <Success>  (20) 
True

>  <enamine_searched>  (20) 
False

>  <enamine_id>  (20) 
nan

$$$$

     RDKit          3D

 66 71  0  0  0  0  0  0  0  0999 V2000
   -7.6766    2.5401  -22.1802 C   0  0  0  0  0  0  0  0  0  0  0  0
   -8.5785    2.2736  -23.2793 N   0  0  0  0  0  0  0  0  0  0  0  0
   -8.1352    1.5276  -24.3137 C   0  0  0  0  0  0  0  0  0  0  0  0
   -6.9527    1.3347  -24.5815 O   0  0  0  0  0  0  0  0  0  0  0  0
   -9.2543    0.8543  -25.0946 C   0  0  0  0  0  0  0  0  0  0  0  0
   -9.9002   -0.1184  -24.2417 N   0  0  0  0  0  0  0  0  0  0  0  0
   -9.2517   -1.3967  -24.0935 C   0  0  0  0  0  0  0  0  0  0  0  0
   -9.4042   -1.9515  -22.6641 C   0  0  2  0  0  0  0  0  0  0  0  0
   -8.8208   -0.9668  -21.6152 C   0  0  0  0  0  0  0  0  0  0  0  0
   -9.3779    0.0089  -21.1455 O   0  0  0  0  0  0  0  0  0  0  0  0
   -7.5632   -1.3944  -21.2801 N   0  0  0  0  0  0  0  0  0  0  0  0
   -6.7963   -0.8045  -20.2505 C   0  0  0  0  0  0  0  0  0  0  0  0
   -7.1588   -0.9638  -18.9357 C   0  0  0  0  0  0  0  0  0  0  0  0
   -6.4214   -0.5177  -17.8934 N   0  0  0  0  0  0  0  0  0  0  0  0
   -5.3185    0.1333  -18.1636 C   0  0  0  0  0  0  0  0  0  0  0  0
   -4.8549    0.4083  -19.4826 C   0  0  0  0  0  0  0  0  0  0  0  0
   -3.6930    1.1874  -19.7291 C   0  0  0  0  0  0  0  0  0  0  0  0
   -3.3023    1.4596  -21.0101 C   0  0  0  0  0  0  0  0  0  0  0  0
   -4.0457    0.9674  -22.1027 C   0  0  0  0  0  0  0  0  0  0  0  0
   -5.1716    0.2058  -21.8929 C   0  0  0  0  0  0  0  0  0  0  0  0
   -5.6050   -0.0907  -20.5710 C   0  0  0  0  0  0  0  0  0  0  0  0
   -5.7534   -0.1199  -22.7500 H   0  0  0  0  0  0  0  0  0  0  0  0
   -3.7376    1.2034  -23.1174 H   0  0  0  0  0  0  0  0  0  0  0  0
   -2.4266    2.0754  -21.1941 H   0  0  0  0  0  0  0  0  0  0  0  0
   -3.1391    1.5759  -18.8784 H   0  0  0  0  0  0  0  0  0  0  0  0
   -4.7280    0.4852  -17.3160 H   0  0  0  0  0  0  0  0  0  0  0  0
   -8.0789   -1.4899  -18.6921 H   0  0  0  0  0  0  0  0  0  0  0  0
   -7.1574   -2.6047  -21.9624 C   0  0  0  0  0  0  0  0  0  0  0  0
   -8.4995   -3.1956  -22.4344 C   0  0  2  0  0  0  0  0  0  0  0  0
   -8.3553   -4.2780  -23.5388 C   0  0  0  0  0  0  0  0  0  0  0  0
   -7.2987   -4.0797  -24.6167 C   0  0  0  0  0  0  0  0  0  0  0  0
   -7.6002   -3.5562  -25.8787 C   0  0  0  0  0  0  0  0  0  0  0  0
   -6.6036   -3.3124  -26.8194 C   0  0  0  0  0  0  0  0  0  0  0  0
   -5.2814   -3.6372  -26.5413 C   0  0  0  0  0  0  0  0  0  0  0  0
   -4.9694   -4.2191  -25.3184 C   0  0  0  0  0  0  0  0  0  0  0  0
   -5.9665   -4.4400  -24.3721 C   0  0  0  0  0  0  0  0  0  0  0  0
   -5.6989   -4.8748  -23.4094 H   0  0  0  0  0  0  0  0  0  0  0  0
   -3.9432   -4.5004  -25.1001 H   0  0  0  0  0  0  0  0  0  0  0  0
   -4.5023   -3.4455  -27.2727 H   0  0  0  0  0  0  0  0  0  0  0  0
   -6.8659   -2.8640  -27.7733 H   0  0  0  0  0  0  0  0  0  0  0  0
   -8.6288   -3.3066  -26.1318 H   0  0  0  0  0  0  0  0  0  0  0  0
   -9.3387   -4.4326  -24.0004 H   0  0  0  0  0  0  0  0  0  0  0  0
   -8.1049   -5.2127  -23.0203 H   0  0  0  0  0  0  0  0  0  0  0  0
   -8.9269   -3.6898  -21.5530 H   0  0  0  0  0  0  0  0  0  0  0  0
   -6.6183   -3.2657  -21.2790 H   0  0  0  0  0  0  0  0  0  0  0  0
   -6.4876   -2.3647  -22.8015 H   0  0  0  0  0  0  0  0  0  0  0  0
  -10.8936   -2.0454  -22.4241 C   0  0  0  0  0  0  0  0  0  0  0  0
  -11.5342   -3.0696  -21.7246 C   0  0  0  0  0  0  0  0  0  0  0  0
  -12.8904   -2.9689  -21.4522 C   0  0  0  0  0  0  0  0  0  0  0  0
  -13.6642   -4.1917  -20.4864 Cl  0  0  0  0  0  0  0  0  0  0  0  0
  -13.6549   -1.8856  -21.8865 C   0  0  0  0  0  0  0  0  0  0  0  0
  -13.0220   -0.8652  -22.5733 C   0  0  0  0  0  0  0  0  0  0  0  0
  -11.6549   -0.9311  -22.8169 C   0  0  0  0  0  0  0  0  0  0  0  0
  -10.9926    0.2155  -23.5155 C   0  0  0  0  0  0  0  0  0  0  0  0
  -11.4020    1.3763  -23.4526 O   0  0  0  0  0  0  0  0  0  0  0  0
  -13.5783   -0.0043  -22.9331 H   0  0  0  0  0  0  0  0  0  0  0  0
  -14.7155   -1.8463  -21.6573 H   0  0  0  0  0  0  0  0  0  0  0  0
  -10.9813   -3.9276  -21.3602 H   0  0  0  0  0  0  0  0  0  0  0  0
   -8.1973   -1.2840  -24.3470 H   0  0  0  0  0  0  0  0  0  0  0  0
   -9.7006   -2.1159  -24.7847 H   0  0  0  0  0  0  0  0  0  0  0  0
   -8.8120    0.3300  -25.9407 H   0  0  0  0  0  0  0  0  0  0  0  0
  -10.0035    1.5678  -25.4422 H   0  0  0  0  0  0  0  0  0  0  0  0
   -9.5763    2.2269  -23.0855 H   0  0  0  0  0  0  0  0  0  0  0  0
   -7.8374    3.5448  -21.7894 H   0  0  0  0  0  0  0  0  0  0  0  0
   -6.6622    2.4654  -22.5769 H   0  0  0  0  0  0  0  0  0  0  0  0
   -7.8308    1.7911  -21.3933 H   0  0  0  0  0  0  0  0  0  0  0  0
  1  2  1  0
  2  3  1  0
  3  4  2  0
  3  5  1  0
  5  6  1  0
  6  7  1  0
  8  7  1  6
  8  9  1  0
  9 10  2  0
  9 11  1  0
 11 12  1  0
 12 13  2  0
 13 14  1  0
 14 15  2  0
 15 16  1  0
 16 17  2  0
 17 18  1  0
 18 19  2  0
 19 20  1  0
 20 21  2  0
 20 22  1  0
 19 23  1  0
 18 24  1  0
 17 25  1  0
 15 26  1  0
 13 27  1  0
 11 28  1  0
 28 29  1  0
 29 30  1  0
 30 31  1  0
 31 32  2  0
 32 33  1  0
 33 34  2  0
 34 35  1  0
 35 36  2  0
 36 37  1  0
 35 38  1  0
 34 39  1  0
 33 40  1  0
 32 41  1  0
 30 42  1  0
 30 43  1  0
 29 44  1  1
 28 45  1  0
 28 46  1  0
  8 47  1  0
 47 48  2  0
 48 49  1  0
 49 50  1  0
 49 51  2  0
 51 52  1  0
 52 53  2  0
 53 54  1  0
 54 55  2  0
 52 56  1  0
 51 57  1  0
 48 58  1  0
  7 59  1  0
  7 60  1  0
  5 61  1  0
  5 62  1  0
  2 63  1  0
  1 64  1  0
  1 65  1  0
  1 66  1  0
 54  6  1  0
 29  8  1  0
 36 31  1  0
 53 47  1  0
 21 12  1  0
 21 16  1  0
M  END
>  <cnnaffinities>  (21) 
[6.87956, 6.91373]

>  <score>  (21) 
6.87956

>  <index>  (21) 
20

>  <Smiles>  (21) 
C(N(C(=O)C(N1C([C@@]2(C(=O)N(c3c(nc(c4c(c(c(c(c34)[H])[H])[H])[H])[H])[H])C([C@@]2(C(c2c(c(c(c(c2[H])[H])[H])[H])[H])([H])[H])[H])([H])[H])c2c(c(Cl)c(c(c2C1=O)[H])[H])[H])([H])[H])([H])[H])[H])([H])([H])[H]

>  <h>  (21) 
<NA>

>  <Training>  (21) 
True

>  <Success>  (21) 
True

>  <enamine_searched>  (21) 
False

>  <enamine_id>  (21) 
nan

$$$$

     RDKit          3D

 63 68  0  0  0  0  0  0  0  0999 V2000
  -10.3062   -2.7313  -22.1924 C   0  0  0  0  0  0  0  0  0  0  0  0
   -9.0960   -1.9343  -22.7091 C   0  0  1  0  0  0  0  0  0  0  0  0
   -8.6173   -0.9340  -21.6333 C   0  0  0  0  0  0  0  0  0  0  0  0
   -7.3540   -1.4658  -21.1907 N   0  0  0  0  0  0  0  0  0  0  0  0
   -6.5710   -0.8582  -20.1859 C   0  0  0  0  0  0  0  0  0  0  0  0
   -6.9081   -1.0556  -18.8719 C   0  0  0  0  0  0  0  0  0  0  0  0
   -6.2208   -0.5431  -17.8248 N   0  0  0  0  0  0  0  0  0  0  0  0
   -5.1799    0.2030  -18.1004 C   0  0  0  0  0  0  0  0  0  0  0  0
   -4.7370    0.5003  -19.4209 C   0  0  0  0  0  0  0  0  0  0  0  0
   -3.6197    1.3431  -19.6489 C   0  0  0  0  0  0  0  0  0  0  0  0
   -3.2373    1.6610  -20.9215 C   0  0  0  0  0  0  0  0  0  0  0  0
   -3.9536    1.1473  -22.0277 C   0  0  0  0  0  0  0  0  0  0  0  0
   -5.0317    0.3147  -21.8414 C   0  0  0  0  0  0  0  0  0  0  0  0
   -5.4472   -0.0353  -20.5164 C   0  0  0  0  0  0  0  0  0  0  0  0
   -5.5752   -0.0630  -22.7100 H   0  0  0  0  0  0  0  0  0  0  0  0
   -3.6486    1.4273  -23.0331 H   0  0  0  0  0  0  0  0  0  0  0  0
   -2.3889    2.3204  -21.0897 H   0  0  0  0  0  0  0  0  0  0  0  0
   -3.1045    1.7519  -18.7849 H   0  0  0  0  0  0  0  0  0  0  0  0
   -4.6306    0.6265  -17.2597 H   0  0  0  0  0  0  0  0  0  0  0  0
   -7.7660   -1.6840  -18.6274 H   0  0  0  0  0  0  0  0  0  0  0  0
   -6.8536   -2.4930  -21.9492 C   0  0  0  0  0  0  0  0  0  0  0  0
   -5.8006   -3.0486  -21.7283 O   0  0  0  0  0  0  0  0  0  0  0  0
   -7.8360   -2.7714  -23.0976 C   0  0  1  0  0  0  0  0  0  0  0  0
   -8.1410   -4.2762  -23.2124 C   0  0  0  0  0  0  0  0  0  0  0  0
   -7.0227   -5.0309  -23.7462 N   0  0  0  0  0  0  0  0  0  0  0  0
   -6.7345   -6.3246  -23.1630 C   0  0  0  0  0  0  0  0  0  0  0  0
   -7.8533   -7.3172  -23.4689 C   0  0  0  0  0  0  0  0  0  0  0  0
   -8.6571   -7.6587  -22.6144 O   0  0  0  0  0  0  0  0  0  0  0  0
   -7.9102   -7.7102  -24.7745 N   0  0  0  0  0  0  0  0  0  0  0  0
   -9.1823   -8.1168  -25.3456 C   0  0  0  0  0  0  0  0  0  0  0  0
  -10.1167   -6.9514  -25.5570 C   0  0  0  0  0  0  0  0  0  0  0  0
   -9.9179   -5.9706  -26.6664 C   0  0  0  0  0  0  0  0  0  0  0  0
  -11.0712   -6.9398  -26.7004 C   0  0  0  0  0  0  0  0  0  0  0  0
  -12.0905   -6.5959  -26.5555 H   0  0  0  0  0  0  0  0  0  0  0  0
  -10.9899   -7.7773  -27.3784 H   0  0  0  0  0  0  0  0  0  0  0  0
  -10.1269   -4.9302  -26.4337 H   0  0  0  0  0  0  0  0  0  0  0  0
   -9.0995   -6.1124  -27.3654 H   0  0  0  0  0  0  0  0  0  0  0  0
  -10.4804   -6.4910  -24.6478 H   0  0  0  0  0  0  0  0  0  0  0  0
   -8.9977   -8.6390  -26.2929 H   0  0  0  0  0  0  0  0  0  0  0  0
   -9.6454   -8.8183  -24.6536 H   0  0  0  0  0  0  0  0  0  0  0  0
   -7.2102   -7.3467  -25.4064 H   0  0  0  0  0  0  0  0  0  0  0  0
   -6.6626   -6.2230  -22.0734 H   0  0  0  0  0  0  0  0  0  0  0  0
   -5.7881   -6.6465  -23.6033 H   0  0  0  0  0  0  0  0  0  0  0  0
   -6.3777   -4.6556  -24.8837 C   0  0  0  0  0  0  0  0  0  0  0  0
   -5.7002   -5.4382  -25.5498 O   0  0  0  0  0  0  0  0  0  0  0  0
   -6.5303   -3.2165  -25.2466 C   0  0  0  0  0  0  0  0  0  0  0  0
   -5.9458   -2.8051  -26.4412 C   0  0  0  0  0  0  0  0  0  0  0  0
   -6.0162   -1.4813  -26.8276 C   0  0  0  0  0  0  0  0  0  0  0  0
   -6.6664   -0.5850  -25.9848 C   0  0  0  0  0  0  0  0  0  0  0  0
   -6.7236    0.7114  -26.3451 F   0  0  0  0  0  0  0  0  0  0  0  0
   -7.2523   -0.9703  -24.7926 C   0  0  0  0  0  0  0  0  0  0  0  0
   -7.2119   -2.3186  -24.4139 C   0  0  0  0  0  0  0  0  0  0  0  0
   -7.7520   -0.2131  -24.1926 H   0  0  0  0  0  0  0  0  0  0  0  0
   -5.5729   -1.1138  -27.7457 H   0  0  0  0  0  0  0  0  0  0  0  0
   -5.4384   -3.5660  -27.0289 H   0  0  0  0  0  0  0  0  0  0  0  0
   -9.0092   -4.3923  -23.8751 H   0  0  0  0  0  0  0  0  0  0  0  0
   -8.3738   -4.6992  -22.2338 H   0  0  0  0  0  0  0  0  0  0  0  0
   -9.3200   -0.8656  -20.7975 H   0  0  0  0  0  0  0  0  0  0  0  0
   -8.4938    0.0840  -22.0284 H   0  0  0  0  0  0  0  0  0  0  0  0
   -9.4478   -1.4065  -23.6015 H   0  0  0  0  0  0  0  0  0  0  0  0
  -10.0515   -3.3276  -21.3075 H   0  0  0  0  0  0  0  0  0  0  0  0
  -11.1174   -2.0479  -21.9095 H   0  0  0  0  0  0  0  0  0  0  0  0
  -10.7100   -3.4034  -22.9581 H   0  0  0  0  0  0  0  0  0  0  0  0
  1  2  1  0
  2  3  1  0
  3  4  1  0
  4  5  1  0
  5  6  2  0
  6  7  1  0
  7  8  2  0
  8  9  1  0
  9 10  2  0
 10 11  1  0
 11 12  2  0
 12 13  1  0
 13 14  2  0
 13 15  1  0
 12 16  1  0
 11 17  1  0
 10 18  1  0
  8 19  1  0
  6 20  1  0
  4 21  1  0
 21 22  2  0
 21 23  1  0
 23 24  1  6
 24 25  1  0
 25 26  1  0
 26 27  1  0
 27 28  2  0
 27 29  1  0
 29 30  1  0
 30 31  1  0
 31 32  1  0
 32 33  1  0
 33 34  1  0
 33 35  1  0
 32 36  1  0
 32 37  1  0
 31 38  1  0
 30 39  1  0
 30 40  1  0
 29 41  1  0
 26 42  1  0
 26 43  1  0
 25 44  1  0
 44 45  2  0
 44 46  1  0
 46 47  2  0
 47 48  1  0
 48 49  2  0
 49 50  1  0
 49 51  1  0
 51 52  2  0
 51 53  1  0
 48 54  1  0
 47 55  1  0
 24 56  1  0
 24 57  1  0
  3 58  1  0
  3 59  1  0
  2 60  1  6
  1 61  1  0
  1 62  1  0
  1 63  1  0
 23  2  1  0
 33 31  1  0
 52 46  1  0
 14  5  1  0
 52 23  1  0
 14  9  1  0
M  END
>  <cnnaffinities>  (22) 
[6.68527]

>  <score>  (22) 
6.68527

>  <index>  (22) 
21

>  <Smiles>  (22) 
C([C@]1(C(N(c2c(nc(c3c(c(c(c(c23)[H])[H])[H])[H])[H])[H])C(=O)[C@]21C(N(C(C(=O)N(C(C1(C(C1([H])[H])([H])[H])[H])([H])[H])[H])([H])[H])C(=O)c1c(c(c(F)c(c21)[H])[H])[H])([H])[H])([H])[H])[H])([H])([H])[H]

>  <h>  (22) 
<NA>

>  <Training>  (22) 
True

>  <Success>  (22) 
True

>  <enamine_searched>  (22) 
False

>  <enamine_id>  (22) 
nan

$$$$

     RDKit          3D

 68 73  0  0  0  0  0  0  0  0999 V2000
   -7.5312    3.0778  -21.9038 C   0  0  0  0  0  0  0  0  0  0  0  0
   -8.6719    2.6407  -22.6956 N   0  0  0  0  0  0  0  0  0  0  0  0
   -8.3892    1.8159  -23.7476 C   0  0  0  0  0  0  0  0  0  0  0  0
   -7.2393    1.5438  -24.0791 O   0  0  0  0  0  0  0  0  0  0  0  0
   -9.5727    1.2336  -24.5055 C   0  0  0  0  0  0  0  0  0  0  0  0
  -10.0445    0.0353  -23.8612 N   0  0  0  0  0  0  0  0  0  0  0  0
   -9.2175   -1.1592  -23.8969 C   0  0  0  0  0  0  0  0  0  0  0  0
   -9.2944   -1.9158  -22.5466 C   0  0  2  0  0  0  0  0  0  0  0  0
   -8.6944   -0.9860  -21.4507 C   0  0  0  0  0  0  0  0  0  0  0  0
   -9.2188   -0.0148  -20.9434 O   0  0  0  0  0  0  0  0  0  0  0  0
   -7.4076   -1.4073  -21.1855 N   0  0  0  0  0  0  0  0  0  0  0  0
   -6.6249   -0.8109  -20.1679 C   0  0  0  0  0  0  0  0  0  0  0  0
   -6.9308   -1.0374  -18.8465 C   0  0  0  0  0  0  0  0  0  0  0  0
   -6.2128   -0.5524  -17.8084 N   0  0  0  0  0  0  0  0  0  0  0  0
   -5.1722    0.1936  -18.0843 C   0  0  0  0  0  0  0  0  0  0  0  0
   -4.7446    0.5113  -19.4038 C   0  0  0  0  0  0  0  0  0  0  0  0
   -3.6202    1.3421  -19.6484 C   0  0  0  0  0  0  0  0  0  0  0  0
   -3.2523    1.6536  -20.9289 C   0  0  0  0  0  0  0  0  0  0  0  0
   -3.9959    1.1575  -22.0213 C   0  0  0  0  0  0  0  0  0  0  0  0
   -5.0933    0.3519  -21.8113 C   0  0  0  0  0  0  0  0  0  0  0  0
   -5.4917    0.0001  -20.4917 C   0  0  0  0  0  0  0  0  0  0  0  0
   -5.6859    0.0256  -22.6604 H   0  0  0  0  0  0  0  0  0  0  0  0
   -3.7082    1.4218  -23.0349 H   0  0  0  0  0  0  0  0  0  0  0  0
   -2.3997    2.3033  -21.1072 H   0  0  0  0  0  0  0  0  0  0  0  0
   -3.0831    1.7413  -18.7925 H   0  0  0  0  0  0  0  0  0  0  0  0
   -4.6068    0.5912  -17.2412 H   0  0  0  0  0  0  0  0  0  0  0  0
   -7.7882   -1.6544  -18.5866 H   0  0  0  0  0  0  0  0  0  0  0  0
   -6.9870   -2.5501  -21.9759 C   0  0  0  0  0  0  0  0  0  0  0  0
   -8.3277   -3.1328  -22.4563 C   0  0  2  0  0  0  0  0  0  0  0  0
   -8.1914   -4.0024  -23.7202 C   0  0  0  0  0  0  0  0  0  0  0  0
   -7.5849   -5.2928  -23.5058 N   0  0  0  0  0  0  0  0  0  0  0  0
   -6.2250   -5.5482  -23.4229 C   0  0  0  0  0  0  0  0  0  0  0  0
   -5.7663   -6.5076  -22.5090 C   0  0  0  0  0  0  0  0  0  0  0  0
   -4.4136   -6.7774  -22.3900 C   0  0  0  0  0  0  0  0  0  0  0  0
   -3.4849   -6.1942  -23.2459 C   0  0  0  0  0  0  0  0  0  0  0  0
   -3.9357   -5.2774  -24.1901 C   0  0  0  0  0  0  0  0  0  0  0  0
   -5.2817   -4.9215  -24.2484 C   0  0  0  0  0  0  0  0  0  0  0  0
   -5.5997   -4.1445  -24.9350 H   0  0  0  0  0  0  0  0  0  0  0  0
   -3.2326   -4.7903  -24.8697 H   0  0  0  0  0  0  0  0  0  0  0  0
   -2.4304   -6.4410  -23.1550 H   0  0  0  0  0  0  0  0  0  0  0  0
   -4.0953   -7.4534  -21.6048 H   0  0  0  0  0  0  0  0  0  0  0  0
   -6.4889   -7.0640  -21.9163 H   0  0  0  0  0  0  0  0  0  0  0  0
   -8.1779   -5.9994  -23.1065 H   0  0  0  0  0  0  0  0  0  0  0  0
   -9.1835   -4.1724  -24.1521 H   0  0  0  0  0  0  0  0  0  0  0  0
   -7.6009   -3.4571  -24.4662 H   0  0  0  0  0  0  0  0  0  0  0  0
   -8.6922   -3.7554  -21.6313 H   0  0  0  0  0  0  0  0  0  0  0  0
   -6.3533   -2.2389  -22.8230 H   0  0  0  0  0  0  0  0  0  0  0  0
   -6.4042   -3.2520  -21.3722 H   0  0  0  0  0  0  0  0  0  0  0  0
  -10.7724   -2.1972  -22.3133 C   0  0  0  0  0  0  0  0  0  0  0  0
  -11.2478   -3.3040  -21.6034 C   0  0  0  0  0  0  0  0  0  0  0  0
  -12.5893   -3.3597  -21.2553 C   0  0  0  0  0  0  0  0  0  0  0  0
  -13.1338   -4.4513  -20.0300 Cl  0  0  0  0  0  0  0  0  0  0  0  0
  -13.5354   -2.4668  -21.7474 C   0  0  0  0  0  0  0  0  0  0  0  0
  -13.0862   -1.4015  -22.4916 C   0  0  0  0  0  0  0  0  0  0  0  0
  -11.7207   -1.2399  -22.7085 C   0  0  0  0  0  0  0  0  0  0  0  0
  -11.2918    0.0458  -23.3204 C   0  0  0  0  0  0  0  0  0  0  0  0
  -12.0134    1.0363  -23.3228 O   0  0  0  0  0  0  0  0  0  0  0  0
  -13.7697   -0.6554  -22.8819 H   0  0  0  0  0  0  0  0  0  0  0  0
  -14.5796   -2.5937  -21.4802 H   0  0  0  0  0  0  0  0  0  0  0  0
  -10.5787   -4.0788  -21.2463 H   0  0  0  0  0  0  0  0  0  0  0  0
   -9.5558   -1.8177  -24.7081 H   0  0  0  0  0  0  0  0  0  0  0  0
   -8.1930   -0.8384  -24.0992 H   0  0  0  0  0  0  0  0  0  0  0  0
   -9.2389    1.0056  -25.5197 H   0  0  0  0  0  0  0  0  0  0  0  0
  -10.4152    1.9231  -24.5444 H   0  0  0  0  0  0  0  0  0  0  0  0
   -9.5555    2.5332  -22.2022 H   0  0  0  0  0  0  0  0  0  0  0  0
   -7.7777    3.9249  -21.2595 H   0  0  0  0  0  0  0  0  0  0  0  0
   -6.7547    3.4155  -22.5863 H   0  0  0  0  0  0  0  0  0  0  0  0
   -7.1283    2.2316  -21.3281 H   0  0  0  0  0  0  0  0  0  0  0  0
  1  2  1  0
  2  3  1  0
  3  4  2  0
  3  5  1  0
  5  6  1  0
  6  7  1  0
  8  7  1  6
  8  9  1  0
  9 10  2  0
  9 11  1  0
 11 12  1  0
 12 13  2  0
 13 14  1  0
 14 15  2  0
 15 16  1  0
 16 17  2  0
 17 18  1  0
 18 19  2  0
 19 20  1  0
 20 21  2  0
 20 22  1  0
 19 23  1  0
 18 24  1  0
 17 25  1  0
 15 26  1  0
 13 27  1  0
 11 28  1  0
 28 29  1  0
 29 30  1  0
 30 31  1  0
 31 32  1  0
 32 33  2  0
 33 34  1  0
 34 35  2  0
 35 36  1  0
 36 37  2  0
 37 38  1  0
 36 39  1  0
 35 40  1  0
 34 41  1  0
 33 42  1  0
 31 43  1  0
 30 44  1  0
 30 45  1  0
 29 46  1  1
 28 47  1  0
 28 48  1  0
  8 49  1  0
 49 50  2  0
 50 51  1  0
 51 52  1  0
 51 53  2  0
 53 54  1  0
 54 55  2  0
 55 56  1  0
 56 57  2  0
 54 58  1  0
 53 59  1  0
 50 60  1  0
  7 61  1  0
  7 62  1  0
  5 63  1  0
  5 64  1  0
  2 65  1  0
  1 66  1  0
  1 67  1  0
  1 68  1  0
 56  6  1  0
 29  8  1  0
 37 32  1  0
 55 49  1  0
 21 12  1  0
 21 16  1  0
M  END
>  <cnnaffinities>  (23) 
[6.84717]

>  <score>  (23) 
6.84717

>  <index>  (23) 
23

>  <Smiles>  (23) 
C(N(C(=O)C(N1C([C@@]2(C(=O)N(c3c(nc(c4c(c(c(c(c34)[H])[H])[H])[H])[H])[H])C([C@@]2(C(N(c2c(c(c(c(c2[H])[H])[H])[H])[H])[H])([H])[H])[H])([H])[H])c2c(c(Cl)c(c(c2C1=O)[H])[H])[H])([H])[H])([H])[H])[H])([H])([H])[H]

>  <h>  (23) 
<NA>

>  <Training>  (23) 
True

>  <Success>  (23) 
True

>  <enamine_searched>  (23) 
False

>  <enamine_id>  (23) 
nan

$$$$

     RDKit          3D

 65 70  0  0  0  0  0  0  0  0999 V2000
   -6.0996   -7.8202  -25.3814 O   0  0  0  0  0  0  0  0  0  0  0  0
   -6.0032   -7.2771  -24.2916 C   0  0  0  0  0  0  0  0  0  0  0  0
   -7.1775   -6.5839  -23.6003 C   0  0  0  0  0  0  0  0  0  0  0  0
   -7.0902   -5.0931  -23.7810 N   0  0  1  0  0  4  0  0  0  0  0  0
   -7.2689   -4.7492  -25.2784 C   0  0  0  0  0  0  0  0  0  0  0  0
   -7.2089   -3.2668  -25.5152 C   0  0  0  0  0  0  0  0  0  0  0  0
   -6.8454   -2.7857  -26.7703 C   0  0  0  0  0  0  0  0  0  0  0  0
   -6.7777   -1.4249  -27.0345 C   0  0  0  0  0  0  0  0  0  0  0  0
   -7.0853   -0.5292  -26.0154 C   0  0  0  0  0  0  0  0  0  0  0  0
   -6.9905    1.1864  -26.3156 Cl  0  0  0  0  0  0  0  0  0  0  0  0
   -7.4676   -0.9851  -24.7635 C   0  0  0  0  0  0  0  0  0  0  0  0
   -7.5433   -2.3602  -24.5066 C   0  0  0  0  0  0  0  0  0  0  0  0
   -7.9445   -2.8131  -23.1143 C   0  0  2  0  0  0  0  0  0  0  0  0
   -9.1884   -2.0931  -22.5706 C   0  0  0  0  0  0  0  0  0  0  0  0
   -8.7224   -1.1442  -21.4599 C   0  0  0  0  0  0  0  0  0  0  0  0
   -7.3209   -1.4852  -21.2436 N   0  0  0  0  0  0  0  0  0  0  0  0
   -6.5525   -0.8883  -20.2036 C   0  0  0  0  0  0  0  0  0  0  0  0
   -6.8936   -1.0638  -18.8821 C   0  0  0  0  0  0  0  0  0  0  0  0
   -6.2127   -0.5409  -17.8339 N   0  0  0  0  0  0  0  0  0  0  0  0
   -5.1726    0.2091  -18.0959 C   0  0  0  0  0  0  0  0  0  0  0  0
   -4.7278    0.5120  -19.4123 C   0  0  0  0  0  0  0  0  0  0  0  0
   -3.6069    1.3549  -19.6398 C   0  0  0  0  0  0  0  0  0  0  0  0
   -3.2244    1.6660  -20.9142 C   0  0  0  0  0  0  0  0  0  0  0  0
   -3.9503    1.1587  -22.0127 C   0  0  0  0  0  0  0  0  0  0  0  0
   -5.0314    0.3345  -21.8231 C   0  0  0  0  0  0  0  0  0  0  0  0
   -5.4418   -0.0298  -20.5075 C   0  0  0  0  0  0  0  0  0  0  0  0
   -5.5833   -0.0420  -22.6822 H   0  0  0  0  0  0  0  0  0  0  0  0
   -3.6488    1.4229  -23.0224 H   0  0  0  0  0  0  0  0  0  0  0  0
   -2.3725    2.3205  -21.0851 H   0  0  0  0  0  0  0  0  0  0  0  0
   -3.0843    1.7608  -18.7769 H   0  0  0  0  0  0  0  0  0  0  0  0
   -4.6259    0.6155  -17.2437 H   0  0  0  0  0  0  0  0  0  0  0  0
   -7.7506   -1.6778  -18.6044 H   0  0  0  0  0  0  0  0  0  0  0  0
   -6.8411   -2.4348  -22.1194 C   0  0  0  0  0  0  0  0  0  0  0  0
   -5.7393   -2.9621  -22.1280 O   0  0  0  0  0  0  0  0  0  0  0  0
   -9.2962   -1.3423  -20.5613 H   0  0  0  0  0  0  0  0  0  0  0  0
   -8.8467   -0.0813  -21.7129 H   0  0  0  0  0  0  0  0  0  0  0  0
   -9.8608   -2.8391  -22.1370 H   0  0  0  0  0  0  0  0  0  0  0  0
   -9.7494   -1.5839  -23.3585 H   0  0  0  0  0  0  0  0  0  0  0  0
   -8.1520   -4.3337  -23.0169 C   0  0  0  0  0  0  0  0  0  0  0  0
   -8.1336   -4.6116  -21.9605 H   0  0  0  0  0  0  0  0  0  0  0  0
   -9.1310   -4.5911  -23.4320 H   0  0  0  0  0  0  0  0  0  0  0  0
   -7.7044   -0.2569  -23.9894 H   0  0  0  0  0  0  0  0  0  0  0  0
   -6.4854   -1.0519  -28.0100 H   0  0  0  0  0  0  0  0  0  0  0  0
   -6.5991   -3.4934  -27.5578 H   0  0  0  0  0  0  0  0  0  0  0  0
   -6.5066   -5.2698  -25.8558 H   0  0  0  0  0  0  0  0  0  0  0  0
   -8.2374   -5.1567  -25.5972 H   0  0  0  0  0  0  0  0  0  0  0  0
   -6.1658   -4.7125  -23.4584 H   0  0  0  0  0  0  0  0  0  0  0  0
   -7.2242   -6.8112  -22.5323 H   0  0  0  0  0  0  0  0  0  0  0  0
   -8.0992   -6.9620  -24.0504 H   0  0  0  0  0  0  0  0  0  0  0  0
   -4.8311   -7.2131  -23.6238 N   0  0  0  0  0  0  0  0  0  0  0  0
   -3.6682   -7.8619  -24.2073 C   0  0  0  0  0  0  0  0  0  0  0  0
   -2.4066   -7.5599  -23.4156 C   0  0  1  0  0  0  0  0  0  0  0  0
   -1.0895   -8.0315  -24.0955 C   0  0  0  0  0  0  0  0  0  0  0  0
   -0.6173   -6.5672  -24.2071 C   0  0  1  0  0  0  0  0  0  0  0  0
   -0.4998   -6.1276  -25.5189 F   0  0  0  0  0  0  0  0  0  0  0  0
   -1.9074   -6.0839  -23.5111 C   0  0  0  0  0  0  0  0  0  0  0  0
   -1.7697   -5.5704  -22.5514 H   0  0  0  0  0  0  0  0  0  0  0  0
   -2.5143   -5.4291  -24.1508 H   0  0  0  0  0  0  0  0  0  0  0  0
    0.3308   -6.3214  -23.7130 H   0  0  0  0  0  0  0  0  0  0  0  0
   -1.2263   -8.5196  -25.0684 H   0  0  0  0  0  0  0  0  0  0  0  0
   -0.4583   -8.6877  -23.4869 H   0  0  0  0  0  0  0  0  0  0  0  0
   -2.5407   -7.9280  -22.3845 H   0  0  0  0  0  0  0  0  0  0  0  0
   -3.5705   -7.5130  -25.2473 H   0  0  0  0  0  0  0  0  0  0  0  0
   -3.8593   -8.9434  -24.2643 H   0  0  0  0  0  0  0  0  0  0  0  0
   -4.7853   -6.7080  -22.7494 H   0  0  0  0  0  0  0  0  0  0  0  0
  1  2  2  0
  2  3  1  0
  3  4  1  0
  4  5  1  0
  5  6  1  0
  6  7  2  0
  7  8  1  0
  8  9  2  0
  9 10  1  0
  9 11  1  0
 11 12  2  0
 12 13  1  0
 13 14  1  1
 14 15  1  0
 15 16  1  0
 16 17  1  0
 17 18  2  0
 18 19  1  0
 19 20  2  0
 20 21  1  0
 21 22  2  0
 22 23  1  0
 23 24  2  0
 24 25  1  0
 25 26  2  0
 25 27  1  0
 24 28  1  0
 23 29  1  0
 22 30  1  0
 20 31  1  0
 18 32  1  0
 16 33  1  0
 33 34  2  0
 15 35  1  0
 15 36  1  0
 14 37  1  0
 14 38  1  0
 13 39  1  0
 39 40  1  0
 39 41  1  0
 11 42  1  0
  8 43  1  0
  7 44  1  0
  5 45  1  0
  5 46  1  0
  4 47  1  1
  3 48  1  0
  3 49  1  0
  2 50  1  0
 50 51  1  0
 51 52  1  0
 52 53  1  0
 53 54  1  0
 54 55  1  0
 54 56  1  0
 56 57  1  0
 56 58  1  0
 54 59  1  1
 53 60  1  0
 53 61  1  0
 52 62  1  1
 51 63  1  0
 51 64  1  0
 50 65  1  0
 39  4  1  0
 56 52  1  0
 12  6  1  0
 33 13  1  0
 26 17  1  0
 26 21  1  0
M  CHG  1   4   1
M  END
>  <cnnaffinities>  (24) 
[6.51046, 6.41894, 6.35795, 6.6277]

>  <score>  (24) 
6.51046

>  <index>  (24) 
24

>  <Smiles>  (24) 
O=C(C([N@+]1(C(c2c(c(c(Cl)c(c2[C@@]2(C(C(N(c3c(nc(c4c(c(c(c(c34)[H])[H])[H])[H])[H])[H])C2=O)([H])[H])([H])[H])C1([H])[H])[H])[H])[H])([H])[H])[H])([H])[H])N(C([C@]1(C([C@@](F)(C1([H])[H])[H])([H])[H])[H])([H])[H])[H]

>  <h>  (24) 
<NA>

>  <Training>  (24) 
True

>  <Success>  (24) 
True

>  <enamine_searched>  (24) 
False

>  <enamine_id>  (24) 
nan

$$$$

     RDKit          3D

 70 75  0  0  0  0  0  0  0  0999 V2000
   -5.7799   -7.7666  -25.5528 O   0  0  0  0  0  0  0  0  0  0  0  0
   -5.6664   -7.1678  -24.4977 C   0  0  0  0  0  0  0  0  0  0  0  0
   -6.8463   -6.4170  -23.8686 C   0  0  0  0  0  0  0  0  0  0  0  0
   -6.7804   -4.9104  -23.9719 N   0  0  1  0  0  4  0  0  0  0  0  0
   -6.7605   -4.5226  -25.4507 C   0  0  0  0  0  0  0  0  0  0  0  0
   -6.7679   -3.0265  -25.6391 C   0  0  0  0  0  0  0  0  0  0  0  0
   -6.2811   -2.4791  -26.8282 C   0  0  0  0  0  0  0  0  0  0  0  0
   -6.2986   -1.1086  -27.0496 C   0  0  0  0  0  0  0  0  0  0  0  0
   -6.8110   -0.2772  -26.0602 C   0  0  0  0  0  0  0  0  0  0  0  0
   -6.8462    1.4474  -26.3163 Cl  0  0  0  0  0  0  0  0  0  0  0  0
   -7.3011   -0.8052  -24.8743 C   0  0  0  0  0  0  0  0  0  0  0  0
   -7.2935   -2.1847  -24.6584 C   0  0  0  0  0  0  0  0  0  0  0  0
   -7.8072   -2.6999  -23.3245 C   0  0  2  0  0  0  0  0  0  0  0  0
   -6.8331   -2.3303  -22.2108 C   0  0  0  0  0  0  0  0  0  0  0  0
   -5.7196   -2.8328  -22.1961 O   0  0  0  0  0  0  0  0  0  0  0  0
   -7.3104   -1.4324  -21.2725 N   0  0  0  0  0  0  0  0  0  0  0  0
   -6.5548   -0.8574  -20.2177 C   0  0  0  0  0  0  0  0  0  0  0  0
   -6.8932   -1.0604  -18.8978 C   0  0  0  0  0  0  0  0  0  0  0  0
   -6.2072   -0.5563  -17.8431 N   0  0  0  0  0  0  0  0  0  0  0  0
   -5.1687    0.1995  -18.0927 C   0  0  0  0  0  0  0  0  0  0  0  0
   -4.7273    0.5181  -19.4063 C   0  0  0  0  0  0  0  0  0  0  0  0
   -3.6077    1.3629  -19.6311 C   0  0  0  0  0  0  0  0  0  0  0  0
   -3.2375    1.6924  -20.9061 C   0  0  0  0  0  0  0  0  0  0  0  0
   -3.9744    1.2042  -22.0109 C   0  0  0  0  0  0  0  0  0  0  0  0
   -5.0550    0.3790  -21.8188 C   0  0  0  0  0  0  0  0  0  0  0  0
   -5.4452   -0.0030  -20.5038 C   0  0  0  0  0  0  0  0  0  0  0  0
   -5.6224    0.0121  -22.6679 H   0  0  0  0  0  0  0  0  0  0  0  0
   -3.6852    1.4837  -23.0196 H   0  0  0  0  0  0  0  0  0  0  0  0
   -2.3891    2.3502  -21.0752 H   0  0  0  0  0  0  0  0  0  0  0  0
   -3.0802    1.7562  -18.7652 H   0  0  0  0  0  0  0  0  0  0  0  0
   -4.6240    0.5993  -17.2364 H   0  0  0  0  0  0  0  0  0  0  0  0
   -7.7506   -1.6753  -18.6249 H   0  0  0  0  0  0  0  0  0  0  0  0
   -8.3151   -1.3768  -21.1687 H   0  0  0  0  0  0  0  0  0  0  0  0
   -7.9840   -4.2212  -23.3137 C   0  0  0  0  0  0  0  0  0  0  0  0
   -8.8838   -4.4930  -23.8736 H   0  0  0  0  0  0  0  0  0  0  0  0
   -8.0808   -4.5733  -22.2841 H   0  0  0  0  0  0  0  0  0  0  0  0
   -8.7639   -2.2194  -23.1048 H   0  0  0  0  0  0  0  0  0  0  0  0
   -7.6927   -0.1410  -24.1092 H   0  0  0  0  0  0  0  0  0  0  0  0
   -5.9231   -0.6795  -27.9736 H   0  0  0  0  0  0  0  0  0  0  0  0
   -5.8794   -3.1370  -27.5970 H   0  0  0  0  0  0  0  0  0  0  0  0
   -7.6434   -4.9734  -25.9281 H   0  0  0  0  0  0  0  0  0  0  0  0
   -5.8907   -4.9743  -25.9322 H   0  0  0  0  0  0  0  0  0  0  0  0
   -5.9383   -4.4968  -23.5002 H   0  0  0  0  0  0  0  0  0  0  0  0
   -7.7243   -6.7788  -24.4092 H   0  0  0  0  0  0  0  0  0  0  0  0
   -6.9714   -6.6948  -22.8205 H   0  0  0  0  0  0  0  0  0  0  0  0
   -4.5027   -7.1194  -23.7833 N   0  0  0  0  0  0  0  0  0  0  0  0
   -3.2942   -7.7515  -24.1741 C   0  0  0  0  0  0  0  0  0  0  0  0
   -2.0724   -7.1089  -23.9627 C   0  0  0  0  0  0  0  0  0  0  0  0
   -0.8877   -7.7073  -24.3870 C   0  0  0  0  0  0  0  0  0  0  0  0
   -0.9063   -8.9499  -25.0260 C   0  0  0  0  0  0  0  0  0  0  0  0
    0.3187   -9.5439  -25.4774 N   0  0  0  0  0  0  0  0  0  0  0  0
    1.3329   -9.8743  -24.4779 C   0  0  0  0  0  0  0  0  0  0  0  0
    2.6527  -10.2405  -25.1423 C   0  0  0  0  0  0  0  0  0  0  0  0
    2.4254  -11.1940  -26.1512 O   0  0  0  0  0  0  0  0  0  0  0  0
    1.7029  -10.6245  -27.2096 C   0  0  0  0  0  0  0  0  0  0  0  0
    0.4032   -9.9434  -26.7883 C   0  0  0  0  0  0  0  0  0  0  0  0
   -0.4692   -9.7264  -27.6106 O   0  0  0  0  0  0  0  0  0  0  0  0
    2.3108   -9.8659  -27.7322 H   0  0  0  0  0  0  0  0  0  0  0  0
    1.4532  -11.4283  -27.9054 H   0  0  0  0  0  0  0  0  0  0  0  0
    3.1446   -9.3540  -25.5710 H   0  0  0  0  0  0  0  0  0  0  0  0
    3.3353  -10.6982  -24.4181 H   0  0  0  0  0  0  0  0  0  0  0  0
    1.4726   -9.0106  -23.8202 H   0  0  0  0  0  0  0  0  0  0  0  0
    0.9788  -10.7224  -23.8770 H   0  0  0  0  0  0  0  0  0  0  0  0
   -2.1290   -9.6078  -25.1947 C   0  0  0  0  0  0  0  0  0  0  0  0
   -3.3121   -9.0105  -24.7737 C   0  0  0  0  0  0  0  0  0  0  0  0
   -4.2639   -9.5033  -24.9307 H   0  0  0  0  0  0  0  0  0  0  0  0
   -2.1631  -10.5819  -25.6828 H   0  0  0  0  0  0  0  0  0  0  0  0
    0.0588   -7.1893  -24.2334 H   0  0  0  0  0  0  0  0  0  0  0  0
   -2.0434   -6.1388  -23.4717 H   0  0  0  0  0  0  0  0  0  0  0  0
   -4.4921   -6.5148  -22.9790 H   0  0  0  0  0  0  0  0  0  0  0  0
  1  2  2  0
  2  3  1  0
  3  4  1  0
  4  5  1  0
  5  6  1  0
  6  7  2  0
  7  8  1  0
  8  9  2  0
  9 10  1  0
  9 11  1  0
 11 12  2  0
 12 13  1  0
 13 14  1  0
 14 15  2  0
 14 16  1  0
 16 17  1  0
 17 18  2  0
 18 19  1  0
 19 20  2  0
 20 21  1  0
 21 22  2  0
 22 23  1  0
 23 24  2  0
 24 25  1  0
 25 26  2  0
 25 27  1  0
 24 28  1  0
 23 29  1  0
 22 30  1  0
 20 31  1  0
 18 32  1  0
 16 33  1  0
 13 34  1  0
 34 35  1  0
 34 36  1  0
 13 37  1  1
 11 38  1  0
  8 39  1  0
  7 40  1  0
  5 41  1  0
  5 42  1  0
  4 43  1  1
  3 44  1  0
  3 45  1  0
  2 46  1  0
 46 47  1  0
 47 48  2  0
 48 49  1  0
 49 50  2  0
 50 51  1  0
 51 52  1  0
 52 53  1  0
 53 54  1  0
 54 55  1  0
 55 56  1  0
 56 57  2  0
 55 58  1  0
 55 59  1  0
 53 60  1  0
 53 61  1  0
 52 62  1  0
 52 63  1  0
 50 64  1  0
 64 65  2  0
 65 66  1  0
 64 67  1  0
 49 68  1  0
 48 69  1  0
 46 70  1  0
 34  4  1  0
 65 47  1  0
 12  6  1  0
 26 17  1  0
 56 51  1  0
 26 21  1  0
M  CHG  1   4   1
M  END
>  <cnnaffinities>  (25) 
[6.18788]

>  <score>  (25) 
6.18788

>  <index>  (25) 
25

>  <Smiles>  (25) 
O=C(C([N@+]1(C(c2c(c(c(Cl)c(c2[C@](C(=O)N(c2c(nc(c3c(c(c(c(c23)[H])[H])[H])[H])[H])[H])[H])(C1([H])[H])[H])[H])[H])[H])([H])[H])[H])([H])[H])N(c1c(c(c(N2C(C(OC(C2=O)([H])[H])([H])[H])([H])[H])c(c1[H])[H])[H])[H])[H]

>  <h>  (25) 
<NA>

>  <Training>  (25) 
True

>  <Success>  (25) 
True

>  <enamine_searched>  (25) 
False

>  <enamine_id>  (25) 
nan

$$$$

     RDKit          3D

 55 60  0  0  0  0  0  0  0  0999 V2000
  -10.2214   -2.9758  -22.0764 C   0  0  0  0  0  0  0  0  0  0  0  0
   -9.1540   -2.0197  -22.6283 C   0  0  1  0  0  0  0  0  0  0  0  0
   -8.6894   -1.0391  -21.5345 C   0  0  0  0  0  0  0  0  0  0  0  0
   -7.3488   -1.4532  -21.1997 N   0  0  0  0  0  0  0  0  0  0  0  0
   -6.5712   -0.8499  -20.1899 C   0  0  0  0  0  0  0  0  0  0  0  0
   -6.9080   -1.0501  -18.8765 C   0  0  0  0  0  0  0  0  0  0  0  0
   -6.2199   -0.5452  -17.8276 N   0  0  0  0  0  0  0  0  0  0  0  0
   -5.1772    0.2013  -18.0989 C   0  0  0  0  0  0  0  0  0  0  0  0
   -4.7342    0.5039  -19.4182 C   0  0  0  0  0  0  0  0  0  0  0  0
   -3.6120    1.3412  -19.6444 C   0  0  0  0  0  0  0  0  0  0  0  0
   -3.2307    1.6615  -20.9170 C   0  0  0  0  0  0  0  0  0  0  0  0
   -3.9546    1.1605  -22.0236 C   0  0  0  0  0  0  0  0  0  0  0  0
   -5.0375    0.3370  -21.8366 C   0  0  0  0  0  0  0  0  0  0  0  0
   -5.4486   -0.0232  -20.5151 C   0  0  0  0  0  0  0  0  0  0  0  0
   -5.5888   -0.0326  -22.7026 H   0  0  0  0  0  0  0  0  0  0  0  0
   -3.6532    1.4416  -23.0292 H   0  0  0  0  0  0  0  0  0  0  0  0
   -2.3792    2.3146  -21.0846 H   0  0  0  0  0  0  0  0  0  0  0  0
   -3.0884    1.7415  -18.7810 H   0  0  0  0  0  0  0  0  0  0  0  0
   -4.6254    0.6183  -17.2556 H   0  0  0  0  0  0  0  0  0  0  0  0
   -7.7658   -1.6795  -18.6384 H   0  0  0  0  0  0  0  0  0  0  0  0
   -6.8257   -2.4037  -22.0341 C   0  0  0  0  0  0  0  0  0  0  0  0
   -5.7400   -2.9286  -21.8766 O   0  0  0  0  0  0  0  0  0  0  0  0
   -7.8448   -2.6723  -23.1573 C   0  0  1  0  0  0  0  0  0  0  0  0
   -7.9346   -4.1825  -23.3644 C   0  0  0  0  0  0  0  0  0  0  0  0
   -6.6768   -4.6577  -23.8946 N   0  0  0  0  0  0  0  0  0  0  0  0
   -6.2446   -5.9565  -23.4394 C   0  0  0  0  0  0  0  0  0  0  0  0
   -7.1322   -7.0101  -24.0399 C   0  0  0  0  0  0  0  0  0  0  0  0
   -8.4029   -7.4734  -23.6666 C   0  0  0  0  0  0  0  0  0  0  0  0
   -8.9142   -8.1936  -24.6550 N   0  0  0  0  0  0  0  0  0  0  0  0
   -7.9687   -8.1399  -25.5777 N   0  0  0  0  0  0  0  0  0  0  0  0
   -6.8871   -7.4521  -25.2676 N   0  0  0  0  0  0  0  0  0  0  0  0
   -7.9987   -8.7172  -26.4128 H   0  0  0  0  0  0  0  0  0  0  0  0
   -8.9508   -7.3049  -22.7503 H   0  0  0  0  0  0  0  0  0  0  0  0
   -5.2169   -6.0865  -23.7784 H   0  0  0  0  0  0  0  0  0  0  0  0
   -6.2637   -5.9256  -22.3441 H   0  0  0  0  0  0  0  0  0  0  0  0
   -6.2003   -4.1872  -25.0840 C   0  0  0  0  0  0  0  0  0  0  0  0
   -5.4635   -4.8353  -25.8138 O   0  0  0  0  0  0  0  0  0  0  0  0
   -6.6207   -2.7978  -25.3922 C   0  0  0  0  0  0  0  0  0  0  0  0
   -6.1746   -2.2561  -26.5944 C   0  0  0  0  0  0  0  0  0  0  0  0
   -6.4002   -0.9245  -26.8711 C   0  0  0  0  0  0  0  0  0  0  0  0
   -7.0784   -0.1697  -25.9179 C   0  0  0  0  0  0  0  0  0  0  0  0
   -7.2759    1.1369  -26.1631 F   0  0  0  0  0  0  0  0  0  0  0  0
   -7.5560   -0.6978  -24.7336 C   0  0  0  0  0  0  0  0  0  0  0  0
   -7.3550   -2.0538  -24.4634 C   0  0  0  0  0  0  0  0  0  0  0  0
   -8.0849   -0.0507  -24.0413 H   0  0  0  0  0  0  0  0  0  0  0  0
   -6.0370   -0.4534  -27.7762 H   0  0  0  0  0  0  0  0  0  0  0  0
   -5.6303   -2.9152  -27.2654 H   0  0  0  0  0  0  0  0  0  0  0  0
   -8.1214   -4.6935  -22.4168 H   0  0  0  0  0  0  0  0  0  0  0  0
   -8.7588   -4.4223  -24.0508 H   0  0  0  0  0  0  0  0  0  0  0  0
   -9.3319   -1.1065  -20.6633 H   0  0  0  0  0  0  0  0  0  0  0  0
   -8.7008    0.0043  -21.8699 H   0  0  0  0  0  0  0  0  0  0  0  0
   -9.6291   -1.4853  -23.4568 H   0  0  0  0  0  0  0  0  0  0  0  0
   -9.8343   -3.5771  -21.2468 H   0  0  0  0  0  0  0  0  0  0  0  0
  -11.0748   -2.4001  -21.7003 H   0  0  0  0  0  0  0  0  0  0  0  0
  -10.5998   -3.6519  -22.8488 H   0  0  0  0  0  0  0  0  0  0  0  0
  1  2  1  0
  2  3  1  0
  3  4  1  0
  4  5  1  0
  5  6  2  0
  6  7  1  0
  7  8  2  0
  8  9  1  0
  9 10  2  0
 10 11  1  0
 11 12  2  0
 12 13  1  0
 13 14  2  0
 13 15  1  0
 12 16  1  0
 11 17  1  0
 10 18  1  0
  8 19  1  0
  6 20  1  0
  4 21  1  0
 21 22  2  0
 21 23  1  0
 23 24  1  6
 24 25  1  0
 25 26  1  0
 26 27  1  0
 27 28  1  0
 28 29  2  0
 29 30  1  0
 30 31  1  0
 30 32  1  0
 28 33  1  0
 26 34  1  0
 26 35  1  0
 25 36  1  0
 36 37  2  0
 36 38  1  0
 38 39  2  0
 39 40  1  0
 40 41  2  0
 41 42  1  0
 41 43  1  0
 43 44  2  0
 43 45  1  0
 40 46  1  0
 39 47  1  0
 24 48  1  0
 24 49  1  0
  3 50  1  0
  3 51  1  0
  2 52  1  6
  1 53  1  0
  1 54  1  0
  1 55  1  0
 23  2  1  0
 31 27  2  0
 44 38  1  0
 14  5  1  0
 44 23  1  0
 14  9  1  0
M  END
>  <cnnaffinities>  (26) 
[6.27483, 6.70869, 6.19258]

>  <score>  (26) 
6.27483

>  <index>  (26) 
26

>  <Smiles>  (26) 
C([C@]1(C(N(c2c(nc(c3c(c(c(c(c23)[H])[H])[H])[H])[H])[H])C(=O)[C@]21C(N(C(c1c(nn(n1)[H])[H])([H])[H])C(=O)c1c(c(c(F)c(c21)[H])[H])[H])([H])[H])([H])[H])[H])([H])([H])[H]

>  <h>  (26) 
<NA>

>  <Training>  (26) 
True

>  <Success>  (26) 
True

>  <enamine_searched>  (26) 
False

>  <enamine_id>  (26) 
nan

$$$$

     RDKit          3D

 58 62  0  0  0  0  0  0  0  0999 V2000
   -8.4929    4.4299  -24.6599 C   0  0  0  0  0  0  0  0  0  0  0  0
   -8.2143    3.3079  -23.7359 N   0  0  0  0  0  4  0  0  0  0  0  0
   -7.2452    2.3163  -24.2867 C   0  0  0  0  0  0  0  0  0  0  0  0
   -7.9081    1.2730  -25.2050 C   0  0  0  0  0  0  0  0  0  0  0  0
   -8.7872    0.3436  -24.5016 N   0  0  0  0  0  0  0  0  0  0  0  0
   -8.3470   -1.0231  -24.2727 C   0  0  0  0  0  0  0  0  0  0  0  0
   -8.7976   -1.5534  -22.8825 C   0  0  2  0  0  0  0  0  0  0  0  0
   -8.1230   -0.7014  -21.7875 C   0  0  0  0  0  0  0  0  0  0  0  0
   -8.3118    0.4847  -21.5705 O   0  0  0  0  0  0  0  0  0  0  0  0
   -7.2614   -1.4846  -21.0621 N   0  0  0  0  0  0  0  0  0  0  0  0
   -6.4644   -0.8938  -20.0455 C   0  0  0  0  0  0  0  0  0  0  0  0
   -6.7568   -1.0913  -18.7209 C   0  0  0  0  0  0  0  0  0  0  0  0
   -6.0655   -0.5350  -17.6966 N   0  0  0  0  0  0  0  0  0  0  0  0
   -5.0548    0.2459  -17.9901 C   0  0  0  0  0  0  0  0  0  0  0  0
   -4.6418    0.5360  -19.3214 C   0  0  0  0  0  0  0  0  0  0  0  0
   -3.5483    1.3991  -19.6031 C   0  0  0  0  0  0  0  0  0  0  0  0
   -3.2042    1.6902  -20.8965 C   0  0  0  0  0  0  0  0  0  0  0  0
   -3.9384    1.1309  -21.9661 C   0  0  0  0  0  0  0  0  0  0  0  0
   -4.9824    0.2767  -21.7191 C   0  0  0  0  0  0  0  0  0  0  0  0
   -5.3711   -0.0381  -20.3851 C   0  0  0  0  0  0  0  0  0  0  0  0
   -5.5442   -0.1569  -22.5417 H   0  0  0  0  0  0  0  0  0  0  0  0
   -3.6826    1.3939  -22.9892 H   0  0  0  0  0  0  0  0  0  0  0  0
   -2.3820    2.3687  -21.1073 H   0  0  0  0  0  0  0  0  0  0  0  0
   -3.0058    1.8426  -18.7735 H   0  0  0  0  0  0  0  0  0  0  0  0
   -4.5219    0.7002  -17.1532 H   0  0  0  0  0  0  0  0  0  0  0  0
   -7.6014   -1.7149  -18.4307 H   0  0  0  0  0  0  0  0  0  0  0  0
   -7.0450   -2.8018  -21.6309 C   0  0  0  0  0  0  0  0  0  0  0  0
   -8.2611   -2.9819  -22.5727 C   0  0  2  0  0  0  0  0  0  0  0  0
   -8.0032   -3.8872  -23.7855 C   0  0  0  0  0  0  0  0  0  0  0  0
   -7.7424   -4.9124  -23.4857 H   0  0  0  0  0  0  0  0  0  0  0  0
   -7.1805   -3.4967  -24.3995 H   0  0  0  0  0  0  0  0  0  0  0  0
   -8.8943   -3.9407  -24.4247 H   0  0  0  0  0  0  0  0  0  0  0  0
   -9.0246   -3.4489  -21.9515 H   0  0  0  0  0  0  0  0  0  0  0  0
   -7.0174   -3.5519  -20.8332 H   0  0  0  0  0  0  0  0  0  0  0  0
   -6.0826   -2.8625  -22.1626 H   0  0  0  0  0  0  0  0  0  0  0  0
  -10.3096   -1.3654  -22.7698 C   0  0  0  0  0  0  0  0  0  0  0  0
  -11.1782   -2.1891  -22.0355 C   0  0  0  0  0  0  0  0  0  0  0  0
  -12.5184   -1.8665  -21.9370 C   0  0  0  0  0  0  0  0  0  0  0  0
  -13.3405   -2.7165  -21.2945 F   0  0  0  0  0  0  0  0  0  0  0  0
  -13.0647   -0.7173  -22.4949 C   0  0  0  0  0  0  0  0  0  0  0  0
  -12.2126    0.1152  -23.1902 C   0  0  0  0  0  0  0  0  0  0  0  0
  -10.8620   -0.2110  -23.3410 C   0  0  0  0  0  0  0  0  0  0  0  0
  -10.0046    0.7536  -24.0844 C   0  0  0  0  0  0  0  0  0  0  0  0
  -10.4037    1.9180  -24.2482 O   0  0  0  0  0  0  0  0  0  0  0  0
  -12.5950    1.0282  -23.6335 H   0  0  0  0  0  0  0  0  0  0  0  0
  -14.1140   -0.4884  -22.3387 H   0  0  0  0  0  0  0  0  0  0  0  0
  -10.8643   -3.0786  -21.5017 H   0  0  0  0  0  0  0  0  0  0  0  0
   -8.7373   -1.6614  -25.0764 H   0  0  0  0  0  0  0  0  0  0  0  0
   -7.2544   -1.0333  -24.3053 H   0  0  0  0  0  0  0  0  0  0  0  0
   -8.4784    1.7482  -26.0141 H   0  0  0  0  0  0  0  0  0  0  0  0
   -7.1224    0.6833  -25.6845 H   0  0  0  0  0  0  0  0  0  0  0  0
   -6.4642    2.8584  -24.8377 H   0  0  0  0  0  0  0  0  0  0  0  0
   -6.7727    1.8053  -23.4414 H   0  0  0  0  0  0  0  0  0  0  0  0
   -9.1196    2.8415  -23.5575 H   0  0  0  0  0  0  0  0  0  0  0  0
   -7.8648    3.6557  -22.8252 H   0  0  0  0  0  0  0  0  0  0  0  0
   -7.5624    4.8995  -24.9843 H   0  0  0  0  0  0  0  0  0  0  0  0
   -9.1230    5.1821  -24.1815 H   0  0  0  0  0  0  0  0  0  0  0  0
   -9.0152    4.0682  -25.5497 H   0  0  0  0  0  0  0  0  0  0  0  0
  1  2  1  0
  2  3  1  0
  3  4  1  0
  4  5  1  0
  5  6  1  0
  7  6  1  6
  7  8  1  0
  8  9  2  0
  8 10  1  0
 10 11  1  0
 11 12  2  0
 12 13  1  0
 13 14  2  0
 14 15  1  0
 15 16  2  0
 16 17  1  0
 17 18  2  0
 18 19  1  0
 19 20  2  0
 19 21  1  0
 18 22  1  0
 17 23  1  0
 16 24  1  0
 14 25  1  0
 12 26  1  0
 10 27  1  0
 27 28  1  0
 28 29  1  0
 29 30  1  0
 29 31  1  0
 29 32  1  0
 28 33  1  1
 27 34  1  0
 27 35  1  0
  7 36  1  0
 36 37  2  0
 37 38  1  0
 38 39  1  0
 38 40  2  0
 40 41  1  0
 41 42  2  0
 42 43  1  0
 43 44  2  0
 41 45  1  0
 40 46  1  0
 37 47  1  0
  6 48  1  0
  6 49  1  0
  4 50  1  0
  4 51  1  0
  3 52  1  0
  3 53  1  0
  2 54  1  0
  2 55  1  0
  1 56  1  0
  1 57  1  0
  1 58  1  0
 43  5  1  0
 28  7  1  0
 42 36  1  0
 20 11  1  0
 20 15  1  0
M  CHG  1   2   1
M  END
>  <cnnaffinities>  (27) 
[6.33763]

>  <score>  (27) 
6.33763

>  <index>  (27) 
27

>  <Smiles>  (27) 
C([N+](C(C(N1C([C@@]2(C(=O)N(c3c(nc(c4c(c(c(c(c34)[H])[H])[H])[H])[H])[H])C([C@@]2(C([H])([H])[H])[H])([H])[H])c2c(c(F)c(c(c2C1=O)[H])[H])[H])([H])[H])([H])[H])([H])[H])([H])[H])([H])([H])[H]

>  <h>  (27) 
<NA>

>  <Training>  (27) 
True

>  <Success>  (27) 
True

>  <enamine_searched>  (27) 
False

>  <enamine_id>  (27) 
nan

$$$$

     RDKit          3D

 64 68  0  0  0  0  0  0  0  0999 V2000
   -7.4719    3.2670  -21.9895 C   0  0  0  0  0  0  0  0  0  0  0  0
   -8.5568    2.7082  -22.7799 N   0  0  0  0  0  0  0  0  0  0  0  0
   -8.2560    1.9287  -23.8520 C   0  0  0  0  0  0  0  0  0  0  0  0
   -7.1020    1.6932  -24.1878 O   0  0  0  0  0  0  0  0  0  0  0  0
   -9.4540    1.3475  -24.6197 C   0  0  0  0  0  0  0  0  0  0  0  0
   -9.9469    0.1560  -23.9590 N   0  0  0  0  0  0  0  0  0  0  0  0
   -9.1355   -1.0534  -23.9591 C   0  0  0  0  0  0  0  0  0  0  0  0
   -9.2543   -1.8217  -22.6132 C   0  0  2  0  0  0  0  0  0  0  0  0
   -8.6567   -0.9321  -21.4894 C   0  0  0  0  0  0  0  0  0  0  0  0
   -9.1593    0.0436  -20.9704 O   0  0  0  0  0  0  0  0  0  0  0  0
   -7.4035   -1.4089  -21.1781 N   0  0  0  0  0  0  0  0  0  0  0  0
   -6.6260   -0.8056  -20.1621 C   0  0  0  0  0  0  0  0  0  0  0  0
   -6.9353   -1.0297  -18.8432 C   0  0  0  0  0  0  0  0  0  0  0  0
   -6.2129   -0.5494  -17.8052 N   0  0  0  0  0  0  0  0  0  0  0  0
   -5.1674    0.1913  -18.0800 C   0  0  0  0  0  0  0  0  0  0  0  0
   -4.7434    0.5116  -19.4002 C   0  0  0  0  0  0  0  0  0  0  0  0
   -3.6158    1.3375  -19.6486 C   0  0  0  0  0  0  0  0  0  0  0  0
   -3.2565    1.6551  -20.9315 C   0  0  0  0  0  0  0  0  0  0  0  0
   -4.0127    1.1704  -22.0224 C   0  0  0  0  0  0  0  0  0  0  0  0
   -5.1140    0.3734  -21.8084 C   0  0  0  0  0  0  0  0  0  0  0  0
   -5.4982    0.0116  -20.4866 C   0  0  0  0  0  0  0  0  0  0  0  0
   -5.7178    0.0512  -22.6523 H   0  0  0  0  0  0  0  0  0  0  0  0
   -3.7336    1.4393  -23.0374 H   0  0  0  0  0  0  0  0  0  0  0  0
   -2.4033    2.3015  -21.1146 H   0  0  0  0  0  0  0  0  0  0  0  0
   -3.0729    1.7315  -18.7950 H   0  0  0  0  0  0  0  0  0  0  0  0
   -4.5953    0.5822  -17.2372 H   0  0  0  0  0  0  0  0  0  0  0  0
   -7.7995   -1.6372  -18.5812 H   0  0  0  0  0  0  0  0  0  0  0  0
   -6.9846   -2.5472  -21.9625 C   0  0  0  0  0  0  0  0  0  0  0  0
   -8.3147   -3.0631  -22.5494 C   0  0  2  0  0  0  0  0  0  0  0  0
   -8.1564   -3.8413  -23.8575 C   0  0  0  0  0  0  0  0  0  0  0  0
   -7.4400   -5.4707  -23.6485 S   0  0  0  0  0  0  0  0  0  0  0  0
   -7.7962   -5.9577  -22.3206 O   0  0  0  0  0  0  0  0  0  0  0  0
   -7.7357   -6.2535  -24.8405 O   0  0  0  0  0  0  0  0  0  0  0  0
   -5.7985   -5.1547  -23.6817 N   0  0  0  0  0  0  0  0  0  0  0  0
   -4.9551   -6.3441  -23.8252 C   0  0  0  0  0  0  0  0  0  0  0  0
   -3.9166   -6.0179  -23.8742 H   0  0  0  0  0  0  0  0  0  0  0  0
   -5.1957   -6.8506  -24.7585 H   0  0  0  0  0  0  0  0  0  0  0  0
   -5.0609   -7.0635  -23.0061 H   0  0  0  0  0  0  0  0  0  0  0  0
   -5.5352   -4.5901  -22.8816 H   0  0  0  0  0  0  0  0  0  0  0  0
   -9.1284   -4.0091  -24.3315 H   0  0  0  0  0  0  0  0  0  0  0  0
   -7.5054   -3.3248  -24.5703 H   0  0  0  0  0  0  0  0  0  0  0  0
   -8.7207   -3.7397  -21.7993 H   0  0  0  0  0  0  0  0  0  0  0  0
   -6.2751   -2.2426  -22.7472 H   0  0  0  0  0  0  0  0  0  0  0  0
   -6.4823   -3.2857  -21.3277 H   0  0  0  0  0  0  0  0  0  0  0  0
  -10.7421   -2.0655  -22.3830 C   0  0  0  0  0  0  0  0  0  0  0  0
  -11.2568   -3.1671  -21.6850 C   0  0  0  0  0  0  0  0  0  0  0  0
  -12.6153   -3.2166  -21.3983 C   0  0  0  0  0  0  0  0  0  0  0  0
  -13.2538   -4.3306  -20.2277 Cl  0  0  0  0  0  0  0  0  0  0  0  0
  -13.5147   -2.3003  -21.9305 C   0  0  0  0  0  0  0  0  0  0  0  0
  -13.0217   -1.2134  -22.6130 C   0  0  0  0  0  0  0  0  0  0  0  0
  -11.6483   -1.0670  -22.7758 C   0  0  0  0  0  0  0  0  0  0  0  0
  -11.1610    0.2230  -23.3459 C   0  0  0  0  0  0  0  0  0  0  0  0
  -11.7973    1.2705  -23.2713 O   0  0  0  0  0  0  0  0  0  0  0  0
  -13.6849   -0.4517  -23.0040 H   0  0  0  0  0  0  0  0  0  0  0  0
  -14.5757   -2.4478  -21.7713 H   0  0  0  0  0  0  0  0  0  0  0  0
  -10.6038   -3.9532  -21.3235 H   0  0  0  0  0  0  0  0  0  0  0  0
   -9.4457   -1.6962  -24.7912 H   0  0  0  0  0  0  0  0  0  0  0  0
   -8.0984   -0.7588  -24.1390 H   0  0  0  0  0  0  0  0  0  0  0  0
  -10.2847    2.0598  -24.6506 H   0  0  0  0  0  0  0  0  0  0  0  0
   -9.1416    1.1238  -25.6498 H   0  0  0  0  0  0  0  0  0  0  0  0
   -9.4698    2.6259  -22.3423 H   0  0  0  0  0  0  0  0  0  0  0  0
   -7.8620    4.0481  -21.3269 H   0  0  0  0  0  0  0  0  0  0  0  0
   -6.9687    2.4963  -21.3886 H   0  0  0  0  0  0  0  0  0  0  0  0
   -6.7238    3.6890  -22.6713 H   0  0  0  0  0  0  0  0  0  0  0  0
  1  2  1  0
  2  3  1  0
  3  4  2  0
  3  5  1  0
  5  6  1  0
  6  7  1  0
  8  7  1  6
  8  9  1  0
  9 10  2  0
  9 11  1  0
 11 12  1  0
 12 13  2  0
 13 14  1  0
 14 15  2  0
 15 16  1  0
 16 17  2  0
 17 18  1  0
 18 19  2  0
 19 20  1  0
 20 21  2  0
 20 22  1  0
 19 23  1  0
 18 24  1  0
 17 25  1  0
 15 26  1  0
 13 27  1  0
 11 28  1  0
 28 29  1  0
 29 30  1  0
 30 31  1  0
 31 32  2  0
 31 33  2  0
 31 34  1  0
 34 35  1  0
 35 36  1  0
 35 37  1  0
 35 38  1  0
 34 39  1  0
 30 40  1  0
 30 41  1  0
 29 42  1  1
 28 43  1  0
 28 44  1  0
  8 45  1  0
 45 46  2  0
 46 47  1  0
 47 48  1  0
 47 49  2  0
 49 50  1  0
 50 51  2  0
 51 52  1  0
 52 53  2  0
 50 54  1  0
 49 55  1  0
 46 56  1  0
  7 57  1  0
  7 58  1  0
  5 59  1  0
  5 60  1  0
  2 61  1  0
  1 62  1  0
  1 63  1  0
  1 64  1  0
 52  6  1  0
 29  8  1  0
 51 45  1  0
 21 12  1  0
 21 16  1  0
M  END
>  <cnnaffinities>  (28) 
[6.74888, 6.59586, 6.51515]

>  <score>  (28) 
6.74888

>  <index>  (28) 
28

>  <Smiles>  (28) 
C(N(C(=O)C(N1C([C@@]2(C(=O)N(c3c(nc(c4c(c(c(c(c34)[H])[H])[H])[H])[H])[H])C([C@@]2(C(S(=O)(=O)N(C([H])([H])[H])[H])([H])[H])[H])([H])[H])c2c(c(Cl)c(c(c2C1=O)[H])[H])[H])([H])[H])([H])[H])[H])([H])([H])[H]

>  <h>  (28) 
<NA>

>  <Training>  (28) 
True

>  <Success>  (28) 
True

>  <enamine_searched>  (28) 
False

>  <enamine_id>  (28) 
nan

$$$$

     RDKit          3D

 55 60  0  0  0  0  0  0  0  0999 V2000
  -10.2214   -2.9758  -22.0764 C   0  0  0  0  0  0  0  0  0  0  0  0
   -9.1540   -2.0197  -22.6283 C   0  0  1  0  0  0  0  0  0  0  0  0
   -8.6894   -1.0391  -21.5345 C   0  0  0  0  0  0  0  0  0  0  0  0
   -7.3488   -1.4532  -21.1997 N   0  0  0  0  0  0  0  0  0  0  0  0
   -6.5712   -0.8500  -20.1899 C   0  0  0  0  0  0  0  0  0  0  0  0
   -6.9080   -1.0501  -18.8765 C   0  0  0  0  0  0  0  0  0  0  0  0
   -6.2199   -0.5452  -17.8276 N   0  0  0  0  0  0  0  0  0  0  0  0
   -5.1772    0.2013  -18.0989 C   0  0  0  0  0  0  0  0  0  0  0  0
   -4.7342    0.5039  -19.4182 C   0  0  0  0  0  0  0  0  0  0  0  0
   -3.6120    1.3412  -19.6444 C   0  0  0  0  0  0  0  0  0  0  0  0
   -3.2307    1.6615  -20.9170 C   0  0  0  0  0  0  0  0  0  0  0  0
   -3.9546    1.1605  -22.0236 C   0  0  0  0  0  0  0  0  0  0  0  0
   -5.0375    0.3370  -21.8366 C   0  0  0  0  0  0  0  0  0  0  0  0
   -5.4486   -0.0232  -20.5151 C   0  0  0  0  0  0  0  0  0  0  0  0
   -5.5888   -0.0326  -22.7026 H   0  0  0  0  0  0  0  0  0  0  0  0
   -3.6532    1.4416  -23.0292 H   0  0  0  0  0  0  0  0  0  0  0  0
   -2.3791    2.3146  -21.0846 H   0  0  0  0  0  0  0  0  0  0  0  0
   -3.0884    1.7415  -18.7810 H   0  0  0  0  0  0  0  0  0  0  0  0
   -4.6254    0.6183  -17.2556 H   0  0  0  0  0  0  0  0  0  0  0  0
   -7.7658   -1.6795  -18.6384 H   0  0  0  0  0  0  0  0  0  0  0  0
   -6.8257   -2.4036  -22.0341 C   0  0  0  0  0  0  0  0  0  0  0  0
   -5.7400   -2.9286  -21.8766 O   0  0  0  0  0  0  0  0  0  0  0  0
   -7.8448   -2.6723  -23.1573 C   0  0  1  0  0  0  0  0  0  0  0  0
   -7.9346   -4.1825  -23.3644 C   0  0  0  0  0  0  0  0  0  0  0  0
   -6.6768   -4.6577  -23.8946 N   0  0  0  0  0  0  0  0  0  0  0  0
   -6.2446   -5.9565  -23.4393 C   0  0  0  0  0  0  0  0  0  0  0  0
   -7.1321   -7.0101  -24.0399 C   0  0  0  0  0  0  0  0  0  0  0  0
   -8.4029   -7.4734  -23.6666 C   0  0  0  0  0  0  0  0  0  0  0  0
   -8.9142   -8.1936  -24.6550 N   0  0  0  0  0  0  0  0  0  0  0  0
   -7.9687   -8.1399  -25.5777 N   0  0  0  0  0  0  0  0  0  0  0  0
   -6.8870   -7.4521  -25.2675 N   0  0  0  0  0  0  0  0  0  0  0  0
   -7.9985   -8.7175  -26.4127 H   0  0  0  0  0  0  0  0  0  0  0  0
   -8.9507   -7.3050  -22.7503 H   0  0  0  0  0  0  0  0  0  0  0  0
   -5.2169   -6.0864  -23.7784 H   0  0  0  0  0  0  0  0  0  0  0  0
   -6.2638   -5.9256  -22.3441 H   0  0  0  0  0  0  0  0  0  0  0  0
   -6.2003   -4.1872  -25.0840 C   0  0  0  0  0  0  0  0  0  0  0  0
   -5.4636   -4.8353  -25.8138 O   0  0  0  0  0  0  0  0  0  0  0  0
   -6.6208   -2.7979  -25.3922 C   0  0  0  0  0  0  0  0  0  0  0  0
   -6.1746   -2.2561  -26.5944 C   0  0  0  0  0  0  0  0  0  0  0  0
   -6.4002   -0.9245  -26.8711 C   0  0  0  0  0  0  0  0  0  0  0  0
   -7.0784   -0.1698  -25.9179 C   0  0  0  0  0  0  0  0  0  0  0  0
   -7.2759    1.1369  -26.1631 F   0  0  0  0  0  0  0  0  0  0  0  0
   -7.5560   -0.6979  -24.7336 C   0  0  0  0  0  0  0  0  0  0  0  0
   -7.3551   -2.0538  -24.4634 C   0  0  0  0  0  0  0  0  0  0  0  0
   -8.0849   -0.0507  -24.0413 H   0  0  0  0  0  0  0  0  0  0  0  0
   -6.0369   -0.4535  -27.7761 H   0  0  0  0  0  0  0  0  0  0  0  0
   -5.6302   -2.9152  -27.2654 H   0  0  0  0  0  0  0  0  0  0  0  0
   -8.1214   -4.6935  -22.4168 H   0  0  0  0  0  0  0  0  0  0  0  0
   -8.7589   -4.4223  -24.0508 H   0  0  0  0  0  0  0  0  0  0  0  0
   -9.3319   -1.1065  -20.6633 H   0  0  0  0  0  0  0  0  0  0  0  0
   -8.7008    0.0043  -21.8698 H   0  0  0  0  0  0  0  0  0  0  0  0
   -9.6291   -1.4853  -23.4568 H   0  0  0  0  0  0  0  0  0  0  0  0
   -9.8344   -3.5771  -21.2468 H   0  0  0  0  0  0  0  0  0  0  0  0
  -11.0748   -2.4001  -21.7002 H   0  0  0  0  0  0  0  0  0  0  0  0
  -10.5999   -3.6519  -22.8488 H   0  0  0  0  0  0  0  0  0  0  0  0
  1  2  1  0
  2  3  1  0
  3  4  1  0
  4  5  1  0
  5  6  2  0
  6  7  1  0
  7  8  2  0
  8  9  1  0
  9 10  2  0
 10 11  1  0
 11 12  2  0
 12 13  1  0
 13 14  2  0
 13 15  1  0
 12 16  1  0
 11 17  1  0
 10 18  1  0
  8 19  1  0
  6 20  1  0
  4 21  1  0
 21 22  2  0
 21 23  1  0
 23 24  1  6
 24 25  1  0
 25 26  1  0
 26 27  1  0
 27 28  1  0
 28 29  2  0
 29 30  1  0
 30 31  1  0
 30 32  1  0
 28 33  1  0
 26 34  1  0
 26 35  1  0
 25 36  1  0
 36 37  2  0
 36 38  1  0
 38 39  2  0
 39 40  1  0
 40 41  2  0
 41 42  1  0
 41 43  1  0
 43 44  2  0
 43 45  1  0
 40 46  1  0
 39 47  1  0
 24 48  1  0
 24 49  1  0
  3 50  1  0
  3 51  1  0
  2 52  1  6
  1 53  1  0
  1 54  1  0
  1 55  1  0
 23  2  1  0
 31 27  2  0
 44 38  1  0
 14  5  1  0
 44 23  1  0
 14  9  1  0
M  END
>  <cnnaffinities>  (29) 
[6.27484, 6.70869, 6.19258]

>  <score>  (29) 
6.27484

>  <index>  (29) 
29

>  <Smiles>  (29) 
C([C@]1(C(N(c2c(nc(c3c(c(c(c(c23)[H])[H])[H])[H])[H])[H])C(=O)[C@]21C(N(C(c1c(nn(n1)[H])[H])([H])[H])C(=O)c1c(c(c(F)c(c21)[H])[H])[H])([H])[H])([H])[H])[H])([H])([H])[H]

>  <h>  (29) 
<NA>

>  <Training>  (29) 
True

>  <Success>  (29) 
True

>  <enamine_searched>  (29) 
False

>  <enamine_id>  (29) 
nan

$$$$

     RDKit          3D

 58 63  0  0  0  0  0  0  0  0999 V2000
  -10.4548   -1.1476  -23.2410 C   0  0  0  0  0  0  0  0  0  0  0  0
   -9.0015   -1.4940  -22.9211 C   0  0  1  0  0  0  0  0  0  0  0  0
   -8.3632   -0.5339  -21.9067 C   0  0  0  0  0  0  0  0  0  0  0  0
   -7.3635   -1.3507  -21.2342 N   0  0  0  0  0  0  0  0  0  0  0  0
   -6.5637   -0.8477  -20.1845 C   0  0  0  0  0  0  0  0  0  0  0  0
   -6.8815   -1.0912  -18.8721 C   0  0  0  0  0  0  0  0  0  0  0  0
   -6.2055   -0.5649  -17.8219 N   0  0  0  0  0  0  0  0  0  0  0  0
   -5.1807    0.2067  -18.0847 C   0  0  0  0  0  0  0  0  0  0  0  0
   -4.7315    0.5131  -19.4008 C   0  0  0  0  0  0  0  0  0  0  0  0
   -3.6064    1.3401  -19.6399 C   0  0  0  0  0  0  0  0  0  0  0  0
   -3.2156    1.6196  -20.9197 C   0  0  0  0  0  0  0  0  0  0  0  0
   -3.9270    1.0887  -22.0182 C   0  0  0  0  0  0  0  0  0  0  0  0
   -5.0138    0.2747  -21.8147 C   0  0  0  0  0  0  0  0  0  0  0  0
   -5.4438   -0.0212  -20.4939 C   0  0  0  0  0  0  0  0  0  0  0  0
   -5.5480   -0.1527  -22.6573 H   0  0  0  0  0  0  0  0  0  0  0  0
   -3.6139    1.3319  -23.0288 H   0  0  0  0  0  0  0  0  0  0  0  0
   -2.3619    2.2658  -21.0989 H   0  0  0  0  0  0  0  0  0  0  0  0
   -3.0847    1.7582  -18.7843 H   0  0  0  0  0  0  0  0  0  0  0  0
   -4.6428    0.6322  -17.2360 H   0  0  0  0  0  0  0  0  0  0  0  0
   -7.7259   -1.7299  -18.6202 H   0  0  0  0  0  0  0  0  0  0  0  0
   -7.5844   -2.7027  -21.3678 C   0  0  0  0  0  0  0  0  0  0  0  0
   -6.9147   -3.5674  -20.8329 O   0  0  0  0  0  0  0  0  0  0  0  0
   -8.7867   -2.9136  -22.2891 C   0  0  1  0  0  0  0  0  0  0  0  0
   -9.9987   -3.3239  -21.4191 C   0  0  0  0  0  0  0  0  0  0  0  0
  -11.1399   -3.7626  -22.2072 N   0  0  0  0  0  0  0  0  0  0  0  0
  -12.4911   -3.7912  -21.6092 C   0  0  0  0  0  0  0  0  0  0  0  0
  -13.5011   -2.8008  -22.1876 C   0  0  0  0  0  0  0  0  0  0  0  0
  -14.0525   -1.6749  -21.6373 C   0  0  0  0  0  0  0  0  0  0  0  0
  -14.7497   -0.7264  -22.4970 C   0  0  0  0  0  0  0  0  0  0  0  0
  -15.1795    0.3782  -22.2268 O   0  0  0  0  0  0  0  0  0  0  0  0
  -14.9030   -1.1838  -23.8089 N   0  0  0  0  0  0  0  0  0  0  0  0
  -14.5903   -2.4406  -24.1816 C   0  0  0  0  0  0  0  0  0  0  0  0
  -13.9315   -3.2320  -23.4199 N   0  0  0  0  0  0  0  0  0  0  0  0
  -14.9232   -2.7606  -25.1645 H   0  0  0  0  0  0  0  0  0  0  0  0
  -15.4642   -0.5909  -24.3972 H   0  0  0  0  0  0  0  0  0  0  0  0
  -14.0345   -1.4086  -20.5876 H   0  0  0  0  0  0  0  0  0  0  0  0
  -12.8944   -4.7436  -21.9352 H   0  0  0  0  0  0  0  0  0  0  0  0
  -12.4535   -3.7864  -20.5180 H   0  0  0  0  0  0  0  0  0  0  0  0
  -10.8990   -4.6743  -23.2078 C   0  0  0  0  0  0  0  0  0  0  0  0
  -11.7926   -5.3532  -23.6669 O   0  0  0  0  0  0  0  0  0  0  0  0
   -9.5126   -4.8125  -23.7525 C   0  0  0  0  0  0  0  0  0  0  0  0
   -9.2774   -5.7540  -24.7592 C   0  0  0  0  0  0  0  0  0  0  0  0
   -8.0357   -5.8599  -25.3568 C   0  0  0  0  0  0  0  0  0  0  0  0
   -7.0306   -5.0073  -24.9144 C   0  0  0  0  0  0  0  0  0  0  0  0
   -5.8288   -5.0798  -25.5064 F   0  0  0  0  0  0  0  0  0  0  0  0
   -7.2277   -4.0835  -23.9075 C   0  0  0  0  0  0  0  0  0  0  0  0
   -8.4920   -3.9779  -23.3136 C   0  0  0  0  0  0  0  0  0  0  0  0
   -6.4020   -3.4541  -23.5930 H   0  0  0  0  0  0  0  0  0  0  0  0
   -7.8301   -6.5662  -26.1572 H   0  0  0  0  0  0  0  0  0  0  0  0
  -10.0937   -6.3919  -25.0750 H   0  0  0  0  0  0  0  0  0  0  0  0
   -9.7052   -4.1287  -20.7410 H   0  0  0  0  0  0  0  0  0  0  0  0
  -10.2922   -2.4483  -20.8361 H   0  0  0  0  0  0  0  0  0  0  0  0
   -9.1132   -0.1650  -21.1893 H   0  0  0  0  0  0  0  0  0  0  0  0
   -7.9035    0.3348  -22.3871 H   0  0  0  0  0  0  0  0  0  0  0  0
   -8.4105   -1.4736  -23.8488 H   0  0  0  0  0  0  0  0  0  0  0  0
  -11.0486   -1.1084  -22.3208 H   0  0  0  0  0  0  0  0  0  0  0  0
  -10.9048   -1.9226  -23.8674 H   0  0  0  0  0  0  0  0  0  0  0  0
  -10.5335   -0.1818  -23.7434 H   0  0  0  0  0  0  0  0  0  0  0  0
  1  2  1  0
  2  3  1  0
  3  4  1  0
  4  5  1  0
  5  6  2  0
  6  7  1  0
  7  8  2  0
  8  9  1  0
  9 10  2  0
 10 11  1  0
 11 12  2  0
 12 13  1  0
 13 14  2  0
 13 15  1  0
 12 16  1  0
 11 17  1  0
 10 18  1  0
  8 19  1  0
  6 20  1  0
  4 21  1  0
 21 22  2  0
 21 23  1  0
 23 24  1  1
 24 25  1  0
 25 26  1  0
 26 27  1  0
 27 28  2  0
 28 29  1  0
 29 30  2  0
 29 31  1  0
 31 32  1  0
 32 33  2  0
 32 34  1  0
 31 35  1  0
 28 36  1  0
 26 37  1  0
 26 38  1  0
 25 39  1  0
 39 40  2  0
 39 41  1  0
 41 42  2  0
 42 43  1  0
 43 44  2  0
 44 45  1  0
 44 46  1  0
 46 47  2  0
 46 48  1  0
 43 49  1  0
 42 50  1  0
 24 51  1  0
 24 52  1  0
  3 53  1  0
  3 54  1  0
  2 55  1  6
  1 56  1  0
  1 57  1  0
  1 58  1  0
 23  2  1  0
 33 27  1  0
 47 41  1  0
 14  5  1  0
 47 23  1  0
 14  9  1  0
M  END
>  <cnnaffinities>  (30) 
[6.72441]

>  <score>  (30) 
6.72441

>  <index>  (30) 
30

>  <Smiles>  (30) 
C([C@]1(C(N(c2c(nc(c3c(c(c(c(c23)[H])[H])[H])[H])[H])[H])C(=O)[C@]21C(N(C(c1c(c(=O)n(c(n1)[H])[H])[H])([H])[H])C(=O)c1c(c(c(F)c(c21)[H])[H])[H])([H])[H])([H])[H])[H])([H])([H])[H]

>  <h>  (30) 
<NA>

>  <Training>  (30) 
True

>  <Success>  (30) 
True

>  <enamine_searched>  (30) 
False

>  <enamine_id>  (30) 
nan

$$$$

     RDKit          3D

 66 71  0  0  0  0  0  0  0  0999 V2000
   -7.5992    3.2357  -21.8596 C   0  0  0  0  0  0  0  0  0  0  0  0
   -8.7104    2.7686  -22.6721 N   0  0  0  0  0  0  0  0  0  0  0  0
   -8.3641    1.9733  -23.7223 C   0  0  0  0  0  0  0  0  0  0  0  0
   -7.1950    1.7147  -23.9788 O   0  0  0  0  0  0  0  0  0  0  0  0
   -9.4891    1.3788  -24.5615 C   0  0  0  0  0  0  0  0  0  0  0  0
   -9.9689    0.1767  -23.9187 N   0  0  0  0  0  0  0  0  0  0  0  0
   -9.1505   -1.0254  -23.9485 C   0  0  0  0  0  0  0  0  0  0  0  0
   -9.2638   -1.8178  -22.6160 C   0  0  2  0  0  0  0  0  0  0  0  0
   -8.6636   -0.9478  -21.4847 C   0  0  0  0  0  0  0  0  0  0  0  0
   -9.1798    0.0202  -20.9586 O   0  0  0  0  0  0  0  0  0  0  0  0
   -7.4057   -1.4232  -21.1905 N   0  0  0  0  0  0  0  0  0  0  0  0
   -6.6114   -0.8302  -20.1783 C   0  0  0  0  0  0  0  0  0  0  0  0
   -6.9208   -1.0486  -18.8581 C   0  0  0  0  0  0  0  0  0  0  0  0
   -6.2117   -0.5559  -17.8168 N   0  0  0  0  0  0  0  0  0  0  0  0
   -5.1739    0.1950  -18.0902 C   0  0  0  0  0  0  0  0  0  0  0  0
   -4.7455    0.5099  -19.4097 C   0  0  0  0  0  0  0  0  0  0  0  0
   -3.6250    1.3479  -19.6483 C   0  0  0  0  0  0  0  0  0  0  0  0
   -3.2552    1.6621  -20.9267 C   0  0  0  0  0  0  0  0  0  0  0  0
   -3.9887    1.1586  -22.0217 C   0  0  0  0  0  0  0  0  0  0  0  0
   -5.0790    0.3432  -21.8186 C   0  0  0  0  0  0  0  0  0  0  0  0
   -5.4820   -0.0115  -20.5010 C   0  0  0  0  0  0  0  0  0  0  0  0
   -5.6534    0.0039  -22.6753 H   0  0  0  0  0  0  0  0  0  0  0  0
   -3.6904    1.4186  -23.0330 H   0  0  0  0  0  0  0  0  0  0  0  0
   -2.4036    2.3118  -21.1024 H   0  0  0  0  0  0  0  0  0  0  0  0
   -3.0918    1.7496  -18.7914 H   0  0  0  0  0  0  0  0  0  0  0  0
   -4.6073    0.5966  -17.2484 H   0  0  0  0  0  0  0  0  0  0  0  0
   -7.7834   -1.6599  -18.6038 H   0  0  0  0  0  0  0  0  0  0  0  0
   -7.0121   -2.5824  -21.9713 C   0  0  0  0  0  0  0  0  0  0  0  0
   -8.3441   -3.0717  -22.5746 C   0  0  2  0  0  0  0  0  0  0  0  0
   -8.1941   -3.8087  -23.9062 C   0  0  0  0  0  0  0  0  0  0  0  0
   -7.5357   -5.0813  -23.7498 N   0  0  0  0  0  0  0  0  0  0  0  0
   -7.1779   -5.8651  -24.7969 C   0  0  0  0  0  0  0  0  0  0  0  0
   -7.5788   -5.6063  -26.1218 C   0  0  0  0  0  0  0  0  0  0  0  0
   -7.1685   -6.5140  -27.0778 C   0  0  0  0  0  0  0  0  0  0  0  0
   -6.3902   -7.5684  -26.8109 N   0  0  0  0  0  0  0  0  0  0  0  0
   -6.0672   -7.6989  -25.5298 C   0  0  0  0  0  0  0  0  0  0  0  0
   -6.4205   -6.9318  -24.5039 N   0  0  0  0  0  0  0  0  0  0  0  0
   -5.4343   -8.5462  -25.2730 H   0  0  0  0  0  0  0  0  0  0  0  0
   -7.4742   -6.3958  -28.1165 H   0  0  0  0  0  0  0  0  0  0  0  0
   -8.1680   -4.7383  -26.3938 H   0  0  0  0  0  0  0  0  0  0  0  0
   -7.1215   -5.3537  -22.8740 H   0  0  0  0  0  0  0  0  0  0  0  0
   -9.1878   -3.9775  -24.3418 H   0  0  0  0  0  0  0  0  0  0  0  0
   -7.6280   -3.1845  -24.6166 H   0  0  0  0  0  0  0  0  0  0  0  0
   -8.7714   -3.7775  -21.8546 H   0  0  0  0  0  0  0  0  0  0  0  0
   -6.5508   -3.3348  -21.3251 H   0  0  0  0  0  0  0  0  0  0  0  0
   -6.2784   -2.3160  -22.7501 H   0  0  0  0  0  0  0  0  0  0  0  0
  -10.7454   -2.0534  -22.3797 C   0  0  0  0  0  0  0  0  0  0  0  0
  -11.2328   -3.1447  -21.6586 C   0  0  0  0  0  0  0  0  0  0  0  0
  -12.5820   -3.2097  -21.3618 C   0  0  0  0  0  0  0  0  0  0  0  0
  -13.1499   -4.3376  -20.1817 Cl  0  0  0  0  0  0  0  0  0  0  0  0
  -13.5126   -2.3117  -21.8680 C   0  0  0  0  0  0  0  0  0  0  0  0
  -13.0431   -1.2413  -22.5933 C   0  0  0  0  0  0  0  0  0  0  0  0
  -11.6716   -1.0705  -22.7658 C   0  0  0  0  0  0  0  0  0  0  0  0
  -11.1911    0.2229  -23.3292 C   0  0  0  0  0  0  0  0  0  0  0  0
  -11.8371    1.2636  -23.2585 O   0  0  0  0  0  0  0  0  0  0  0  0
  -13.7297   -0.5047  -22.9895 H   0  0  0  0  0  0  0  0  0  0  0  0
  -14.5575   -2.4371  -21.6062 H   0  0  0  0  0  0  0  0  0  0  0  0
  -10.5852   -3.9135  -21.2528 H   0  0  0  0  0  0  0  0  0  0  0  0
   -8.1167   -0.7102  -24.1225 H   0  0  0  0  0  0  0  0  0  0  0  0
   -9.4776   -1.6575  -24.7844 H   0  0  0  0  0  0  0  0  0  0  0  0
   -9.0934    1.1325  -25.5554 H   0  0  0  0  0  0  0  0  0  0  0  0
  -10.3401    2.0597  -24.6537 H   0  0  0  0  0  0  0  0  0  0  0  0
   -9.6067    2.6517  -22.2151 H   0  0  0  0  0  0  0  0  0  0  0  0
   -7.9293    3.9395  -21.0905 H   0  0  0  0  0  0  0  0  0  0  0  0
   -7.0642    2.3719  -21.4322 H   0  0  0  0  0  0  0  0  0  0  0  0
   -6.9113    3.7745  -22.5112 H   0  0  0  0  0  0  0  0  0  0  0  0
  1  2  1  0
  2  3  1  0
  3  4  2  0
  3  5  1  0
  5  6  1  0
  6  7  1  0
  8  7  1  6
  8  9  1  0
  9 10  2  0
  9 11  1  0
 11 12  1  0
 12 13  2  0
 13 14  1  0
 14 15  2  0
 15 16  1  0
 16 17  2  0
 17 18  1  0
 18 19  2  0
 19 20  1  0
 20 21  2  0
 20 22  1  0
 19 23  1  0
 18 24  1  0
 17 25  1  0
 15 26  1  0
 13 27  1  0
 11 28  1  0
 28 29  1  0
 29 30  1  0
 30 31  1  0
 31 32  1  0
 32 33  2  0
 33 34  1  0
 34 35  2  0
 35 36  1  0
 36 37  2  0
 36 38  1  0
 34 39  1  0
 33 40  1  0
 31 41  1  0
 30 42  1  0
 30 43  1  0
 29 44  1  1
 28 45  1  0
 28 46  1  0
  8 47  1  0
 47 48  2  0
 48 49  1  0
 49 50  1  0
 49 51  2  0
 51 52  1  0
 52 53  2  0
 53 54  1  0
 54 55  2  0
 52 56  1  0
 51 57  1  0
 48 58  1  0
  7 59  1  0
  7 60  1  0
  5 61  1  0
  5 62  1  0
  2 63  1  0
  1 64  1  0
  1 65  1  0
  1 66  1  0
 54  6  1  0
 29  8  1  0
 37 32  1  0
 53 47  1  0
 21 12  1  0
 21 16  1  0
M  END
>  <cnnaffinities>  (31) 
[6.83447, 6.97264]

>  <score>  (31) 
6.83447

>  <index>  (31) 
31

>  <Smiles>  (31) 
C(N(C(=O)C(N1C([C@@]2(C(=O)N(c3c(nc(c4c(c(c(c(c34)[H])[H])[H])[H])[H])[H])C([C@@]2(C(N(c2c(c(nc(n2)[H])[H])[H])[H])([H])[H])[H])([H])[H])c2c(c(Cl)c(c(c2C1=O)[H])[H])[H])([H])[H])([H])[H])[H])([H])([H])[H]

>  <h>  (31) 
<NA>

>  <Training>  (31) 
True

>  <Success>  (31) 
True

>  <enamine_searched>  (31) 
False

>  <enamine_id>  (31) 
nan

$$$$

     RDKit          3D

 57 62  0  0  0  0  0  0  0  0999 V2000
  -10.1364   -2.0665  -23.5003 C   0  0  0  0  0  0  0  0  0  0  0  0
   -8.8171   -1.3661  -23.2209 C   0  0  1  0  0  0  0  0  0  0  0  0
   -8.5412   -1.1885  -21.7281 C   0  0  0  0  0  0  0  0  0  0  0  0
   -7.1037   -0.9413  -21.7016 N   0  0  0  0  0  0  0  0  0  0  0  0
   -6.4392   -0.4921  -20.5437 C   0  0  0  0  0  0  0  0  0  0  0  0
   -6.8989   -0.8170  -19.2854 C   0  0  0  0  0  0  0  0  0  0  0  0
   -6.2450   -0.5352  -18.1326 N   0  0  0  0  0  0  0  0  0  0  0  0
   -5.1275    0.1398  -18.2186 C   0  0  0  0  0  0  0  0  0  0  0  0
   -4.5905    0.6280  -19.4426 C   0  0  0  0  0  0  0  0  0  0  0  0
   -3.4082    1.4161  -19.4798 C   0  0  0  0  0  0  0  0  0  0  0  0
   -2.9541    1.9269  -20.6640 C   0  0  0  0  0  0  0  0  0  0  0  0
   -3.6660    1.6881  -21.8593 C   0  0  0  0  0  0  0  0  0  0  0  0
   -4.8139    0.9369  -21.8490 C   0  0  0  0  0  0  0  0  0  0  0  0
   -5.2789    0.3483  -20.6397 C   0  0  0  0  0  0  0  0  0  0  0  0
   -5.3636    0.7853  -22.7696 H   0  0  0  0  0  0  0  0  0  0  0  0
   -3.3109    2.1105  -22.7936 H   0  0  0  0  0  0  0  0  0  0  0  0
   -2.0596    2.5432  -20.6917 H   0  0  0  0  0  0  0  0  0  0  0  0
   -2.8988    1.6283  -18.5437 H   0  0  0  0  0  0  0  0  0  0  0  0
   -4.5929    0.3379  -17.2887 H   0  0  0  0  0  0  0  0  0  0  0  0
   -7.8358   -1.3564  -19.1625 H   0  0  0  0  0  0  0  0  0  0  0  0
   -6.4691   -1.5696  -22.7722 C   0  0  0  0  0  0  0  0  0  0  0  0
   -5.2750   -1.7748  -22.8480 O   0  0  0  0  0  0  0  0  0  0  0  0
   -7.5447   -2.0779  -23.7654 C   0  0  1  0  0  0  0  0  0  0  0  0
   -7.6238   -3.6133  -23.5396 C   0  0  0  0  0  0  0  0  0  0  0  0
   -6.4740   -4.3018  -24.0986 N   0  0  0  0  0  0  0  0  0  0  0  0
   -5.7482   -5.2763  -23.2983 C   0  0  0  0  0  0  0  0  0  0  0  0
   -6.6956   -6.1362  -22.5234 C   0  0  0  0  0  0  0  0  0  0  0  0
   -6.9228   -6.1332  -21.2309 N   0  0  0  0  0  0  0  0  0  0  0  0
   -7.9845   -6.9471  -21.0455 N   0  0  0  0  0  0  0  0  0  0  0  0
   -8.3970   -7.4366  -22.1582 N   0  0  0  0  0  0  0  0  0  0  0  0
   -7.5773   -6.9636  -23.1074 N   0  0  0  0  0  0  0  0  0  0  0  0
   -7.7361   -7.2805  -24.5096 C   0  0  0  0  0  0  0  0  0  0  0  0
   -8.3613   -6.5408  -25.0207 H   0  0  0  0  0  0  0  0  0  0  0  0
   -8.1876   -8.2657  -24.6014 H   0  0  0  0  0  0  0  0  0  0  0  0
   -6.7521   -7.2962  -24.9811 H   0  0  0  0  0  0  0  0  0  0  0  0
   -5.0742   -4.7615  -22.6020 H   0  0  0  0  0  0  0  0  0  0  0  0
   -5.1688   -5.8795  -24.0082 H   0  0  0  0  0  0  0  0  0  0  0  0
   -6.1225   -4.1172  -25.4012 C   0  0  0  0  0  0  0  0  0  0  0  0
   -5.4324   -4.9115  -26.0236 O   0  0  0  0  0  0  0  0  0  0  0  0
   -6.6532   -2.8586  -26.0150 C   0  0  0  0  0  0  0  0  0  0  0  0
   -6.5250   -2.7560  -27.3964 C   0  0  0  0  0  0  0  0  0  0  0  0
   -7.0085   -1.6561  -28.0727 C   0  0  0  0  0  0  0  0  0  0  0  0
   -7.5785   -0.6414  -27.3146 C   0  0  0  0  0  0  0  0  0  0  0  0
   -8.0542    0.4445  -27.9499 F   0  0  0  0  0  0  0  0  0  0  0  0
   -7.6983   -0.7040  -25.9392 C   0  0  0  0  0  0  0  0  0  0  0  0
   -7.2713   -1.8527  -25.2495 C   0  0  0  0  0  0  0  0  0  0  0  0
   -8.1308    0.1500  -25.4299 H   0  0  0  0  0  0  0  0  0  0  0  0
   -6.9478   -1.5715  -29.1508 H   0  0  0  0  0  0  0  0  0  0  0  0
   -6.0505   -3.5785  -27.9190 H   0  0  0  0  0  0  0  0  0  0  0  0
   -7.6592   -3.8303  -22.4706 H   0  0  0  0  0  0  0  0  0  0  0  0
   -8.5331   -4.0014  -24.0178 H   0  0  0  0  0  0  0  0  0  0  0  0
   -9.0871   -0.3523  -21.2860 H   0  0  0  0  0  0  0  0  0  0  0  0
   -8.8134   -2.1049  -21.1745 H   0  0  0  0  0  0  0  0  0  0  0  0
   -8.8403   -0.3580  -23.6479 H   0  0  0  0  0  0  0  0  0  0  0  0
  -10.1841   -3.0180  -22.9569 H   0  0  0  0  0  0  0  0  0  0  0  0
  -10.2486   -2.2813  -24.5681 H   0  0  0  0  0  0  0  0  0  0  0  0
  -10.9841   -1.4572  -23.1736 H   0  0  0  0  0  0  0  0  0  0  0  0
  1  2  1  0
  2  3  1  0
  3  4  1  0
  4  5  1  0
  5  6  2  0
  6  7  1  0
  7  8  2  0
  8  9  1  0
  9 10  2  0
 10 11  1  0
 11 12  2  0
 12 13  1  0
 13 14  2  0
 13 15  1  0
 12 16  1  0
 11 17  1  0
 10 18  1  0
  8 19  1  0
  6 20  1  0
  4 21  1  0
 21 22  2  0
 21 23  1  0
 23 24  1  6
 24 25  1  0
 25 26  1  0
 26 27  1  0
 27 28  2  0
 28 29  1  0
 29 30  2  0
 30 31  1  0
 31 32  1  0
 32 33  1  0
 32 34  1  0
 32 35  1  0
 26 36  1  0
 26 37  1  0
 25 38  1  0
 38 39  2  0
 38 40  1  0
 40 41  2  0
 41 42  1  0
 42 43  2  0
 43 44  1  0
 43 45  1  0
 45 46  2  0
 45 47  1  0
 42 48  1  0
 41 49  1  0
 24 50  1  0
 24 51  1  0
  3 52  1  0
  3 53  1  0
  2 54  1  6
  1 55  1  0
  1 56  1  0
  1 57  1  0
 23  2  1  0
 31 27  1  0
 46 40  1  0
 14  5  1  0
 46 23  1  0
 14  9  1  0
M  END
>  <cnnaffinities>  (32) 
[6.2707, 6.41831]

>  <score>  (32) 
6.2707

>  <index>  (32) 
32

>  <Smiles>  (32) 
C([C@]1(C(N(c2c(nc(c3c(c(c(c(c23)[H])[H])[H])[H])[H])[H])C(=O)[C@]21C(N(C(c1nnnn1C([H])([H])[H])([H])[H])C(=O)c1c(c(c(F)c(c21)[H])[H])[H])([H])[H])([H])[H])[H])([H])([H])[H]

>  <h>  (32) 
<NA>

>  <Training>  (32) 
True

>  <Success>  (32) 
True

>  <enamine_searched>  (32) 
False

>  <enamine_id>  (32) 
nan

$$$$

     RDKit          3D

 66 70  0  0  0  0  0  0  0  0999 V2000
   -6.8057    3.4532  -23.0547 C   0  0  0  0  0  0  0  0  0  0  0  0
   -7.4957    2.7517  -24.1237 N   0  0  0  0  0  0  0  0  0  0  0  0
   -6.9787    1.6478  -24.7120 C   0  0  0  0  0  0  0  0  0  0  0  0
   -5.8083    1.2970  -24.6207 O   0  0  0  0  0  0  0  0  0  0  0  0
   -7.9876    0.8119  -25.5145 C   0  0  0  0  0  0  0  0  0  0  0  0
   -8.8755    0.0760  -24.6322 N   0  0  0  0  0  0  0  0  0  0  0  0
   -8.5210   -1.2817  -24.2630 C   0  0  0  0  0  0  0  0  0  0  0  0
   -8.9456   -1.6085  -22.8035 C   0  0  2  0  0  0  0  0  0  0  0  0
   -8.1603   -0.6902  -21.8426 C   0  0  0  0  0  0  0  0  0  0  0  0
   -8.2831    0.5138  -21.7078 O   0  0  0  0  0  0  0  0  0  0  0  0
   -7.2737   -1.4532  -21.1223 N   0  0  0  0  0  0  0  0  0  0  0  0
   -6.4833   -0.8761  -20.0953 C   0  0  0  0  0  0  0  0  0  0  0  0
   -6.7825   -1.1045  -18.7757 C   0  0  0  0  0  0  0  0  0  0  0  0
   -6.1015   -0.5639  -17.7365 N   0  0  0  0  0  0  0  0  0  0  0  0
   -5.0872    0.2170  -18.0176 C   0  0  0  0  0  0  0  0  0  0  0  0
   -4.6581    0.5249  -19.3391 C   0  0  0  0  0  0  0  0  0  0  0  0
   -3.5466    1.3695  -19.6024 C   0  0  0  0  0  0  0  0  0  0  0  0
   -3.1909    1.6740  -20.8870 C   0  0  0  0  0  0  0  0  0  0  0  0
   -3.9305    1.1531  -21.9709 C   0  0  0  0  0  0  0  0  0  0  0  0
   -4.9991    0.3244  -21.7438 C   0  0  0  0  0  0  0  0  0  0  0  0
   -5.3870   -0.0197  -20.4197 C   0  0  0  0  0  0  0  0  0  0  0  0
   -5.5763   -0.0403  -22.5870 H   0  0  0  0  0  0  0  0  0  0  0  0
   -3.6895    1.4236  -22.9938 H   0  0  0  0  0  0  0  0  0  0  0  0
   -2.3524    2.3368  -21.0785 H   0  0  0  0  0  0  0  0  0  0  0  0
   -3.0031    1.7841  -18.7598 H   0  0  0  0  0  0  0  0  0  0  0  0
   -4.5549    0.6540  -17.1741 H   0  0  0  0  0  0  0  0  0  0  0  0
   -7.6328   -1.7355  -18.5123 H   0  0  0  0  0  0  0  0  0  0  0  0
   -7.2211   -2.8474  -21.5086 C   0  0  0  0  0  0  0  0  0  0  0  0
   -8.4939   -3.0231  -22.3686 C   0  0  2  0  0  0  0  0  0  0  0  0
   -8.3262   -4.0374  -23.4929 C   0  0  0  0  0  0  0  0  0  0  0  0
   -8.0498   -5.2838  -22.9009 O   0  0  0  0  0  0  0  0  0  0  0  0
   -7.5279   -6.2465  -23.8006 C   0  0  0  0  0  0  0  0  0  0  0  0
   -8.0687   -7.5934  -23.3684 C   0  0  0  0  0  0  0  0  0  0  0  0
   -9.1555   -7.5887  -23.3882 H   0  0  0  0  0  0  0  0  0  0  0  0
   -7.7400   -7.8304  -22.3520 H   0  0  0  0  0  0  0  0  0  0  0  0
   -7.7262   -8.3617  -24.0586 H   0  0  0  0  0  0  0  0  0  0  0  0
   -6.0062   -6.2089  -23.7769 C   0  0  0  0  0  0  0  0  0  0  0  0
   -5.5950   -6.9530  -24.4673 H   0  0  0  0  0  0  0  0  0  0  0  0
   -5.6602   -6.4392  -22.7652 H   0  0  0  0  0  0  0  0  0  0  0  0
   -5.6159   -5.2236  -24.0557 H   0  0  0  0  0  0  0  0  0  0  0  0
   -7.8914   -6.0310  -24.8190 H   0  0  0  0  0  0  0  0  0  0  0  0
   -7.5106   -3.7354  -24.1728 H   0  0  0  0  0  0  0  0  0  0  0  0
   -9.2416   -4.1054  -24.1062 H   0  0  0  0  0  0  0  0  0  0  0  0
   -9.2530   -3.4286  -21.7030 H   0  0  0  0  0  0  0  0  0  0  0  0
   -6.2952   -3.0837  -22.0582 H   0  0  0  0  0  0  0  0  0  0  0  0
   -7.2379   -3.4800  -20.6177 H   0  0  0  0  0  0  0  0  0  0  0  0
  -10.4339   -1.3088  -22.6835 C   0  0  0  0  0  0  0  0  0  0  0  0
  -11.3561   -2.1066  -21.9869 C   0  0  0  0  0  0  0  0  0  0  0  0
  -12.6882   -1.7239  -21.9400 C   0  0  0  0  0  0  0  0  0  0  0  0
  -13.8403   -2.7493  -21.1312 Cl  0  0  0  0  0  0  0  0  0  0  0  0
  -13.1325   -0.5329  -22.5077 C   0  0  0  0  0  0  0  0  0  0  0  0
  -12.2217    0.2829  -23.1446 C   0  0  0  0  0  0  0  0  0  0  0  0
  -10.8976   -0.1321  -23.2964 C   0  0  0  0  0  0  0  0  0  0  0  0
   -9.9947    0.6923  -24.1737 C   0  0  0  0  0  0  0  0  0  0  0  0
  -10.2601    1.8628  -24.4624 O   0  0  0  0  0  0  0  0  0  0  0  0
  -12.5407    1.2386  -23.5430 H   0  0  0  0  0  0  0  0  0  0  0  0
  -14.1836   -0.2704  -22.4626 H   0  0  0  0  0  0  0  0  0  0  0  0
  -11.0704   -3.0355  -21.4977 H   0  0  0  0  0  0  0  0  0  0  0  0
   -7.4296   -1.3688  -24.3571 H   0  0  0  0  0  0  0  0  0  0  0  0
   -9.0259   -1.9741  -24.9517 H   0  0  0  0  0  0  0  0  0  0  0  0
   -7.4171    0.0980  -26.1141 H   0  0  0  0  0  0  0  0  0  0  0  0
   -8.6058    1.4363  -26.1682 H   0  0  0  0  0  0  0  0  0  0  0  0
   -8.4980    2.8777  -24.2122 H   0  0  0  0  0  0  0  0  0  0  0  0
   -6.4836    2.7546  -22.2671 H   0  0  0  0  0  0  0  0  0  0  0  0
   -7.5001    4.1742  -22.6159 H   0  0  0  0  0  0  0  0  0  0  0  0
   -5.9365    4.0029  -23.4305 H   0  0  0  0  0  0  0  0  0  0  0  0
  1  2  1  0
  2  3  1  0
  3  4  2  0
  3  5  1  0
  5  6  1  0
  6  7  1  0
  8  7  1  6
  8  9  1  0
  9 10  2  0
  9 11  1  0
 11 12  1  0
 12 13  2  0
 13 14  1  0
 14 15  2  0
 15 16  1  0
 16 17  2  0
 17 18  1  0
 18 19  2  0
 19 20  1  0
 20 21  2  0
 20 22  1  0
 19 23  1  0
 18 24  1  0
 17 25  1  0
 15 26  1  0
 13 27  1  0
 11 28  1  0
 28 29  1  0
 29 30  1  0
 30 31  1  0
 31 32  1  0
 32 33  1  0
 33 34  1  0
 33 35  1  0
 33 36  1  0
 32 37  1  0
 37 38  1  0
 37 39  1  0
 37 40  1  0
 32 41  1  0
 30 42  1  0
 30 43  1  0
 29 44  1  1
 28 45  1  0
 28 46  1  0
  8 47  1  0
 47 48  2  0
 48 49  1  0
 49 50  1  0
 49 51  2  0
 51 52  1  0
 52 53  2  0
 53 54  1  0
 54 55  2  0
 52 56  1  0
 51 57  1  0
 48 58  1  0
  7 59  1  0
  7 60  1  0
  5 61  1  0
  5 62  1  0
  2 63  1  0
  1 64  1  0
  1 65  1  0
  1 66  1  0
 54  6  1  0
 29  8  1  0
 53 47  1  0
 21 12  1  0
 21 16  1  0
M  END
>  <cnnaffinities>  (33) 
[6.92665]

>  <score>  (33) 
6.92665

>  <index>  (33) 
34

>  <Smiles>  (33) 
C(N(C(=O)C(N1C([C@@]2(C(=O)N(c3c(nc(c4c(c(c(c(c34)[H])[H])[H])[H])[H])[H])C([C@@]2(C(OC(C([H])([H])[H])(C([H])([H])[H])[H])([H])[H])[H])([H])[H])c2c(c(Cl)c(c(c2C1=O)[H])[H])[H])([H])[H])([H])[H])[H])([H])([H])[H]

>  <h>  (33) 
<NA>

>  <Training>  (33) 
True

>  <Success>  (33) 
True

>  <enamine_searched>  (33) 
False

>  <enamine_id>  (33) 
nan

$$$$

     RDKit          3D

 40 42  0  0  0  0  0  0  0  0999 V2000
   -9.2487   -1.8440  -22.5890 O   0  0  0  0  0  0  0  0  0  0  0  0
   -8.3394   -1.0606  -22.3266 C   0  0  0  0  0  0  0  0  0  0  0  0
   -6.9915   -1.5812  -21.8376 C   0  0  0  0  0  0  0  0  0  0  0  0
   -6.3995   -0.8453  -20.6479 C   0  0  0  0  0  0  0  0  0  0  0  0
   -6.9856   -0.9770  -19.4115 C   0  0  0  0  0  0  0  0  0  0  0  0
   -6.4940   -0.4712  -18.2534 N   0  0  0  0  0  0  0  0  0  0  0  0
   -5.3878    0.2270  -18.3240 C   0  0  0  0  0  0  0  0  0  0  0  0
   -4.6998    0.5068  -19.5343 C   0  0  0  0  0  0  0  0  0  0  0  0
   -3.5704    1.3647  -19.5776 C   0  0  0  0  0  0  0  0  0  0  0  0
   -2.9923    1.7015  -20.7709 C   0  0  0  0  0  0  0  0  0  0  0  0
   -3.4895    1.1486  -21.9666 C   0  0  0  0  0  0  0  0  0  0  0  0
   -4.5414    0.2608  -21.9386 C   0  0  0  0  0  0  0  0  0  0  0  0
   -5.2082   -0.0552  -20.7297 C   0  0  0  0  0  0  0  0  0  0  0  0
   -4.8807   -0.1778  -22.8719 H   0  0  0  0  0  0  0  0  0  0  0  0
   -3.0485    1.4388  -22.9154 H   0  0  0  0  0  0  0  0  0  0  0  0
   -2.1725    2.4121  -20.8111 H   0  0  0  0  0  0  0  0  0  0  0  0
   -3.2039    1.7873  -18.6462 H   0  0  0  0  0  0  0  0  0  0  0  0
   -4.9903    0.6291  -17.3923 H   0  0  0  0  0  0  0  0  0  0  0  0
   -7.9117   -1.5446  -19.3087 H   0  0  0  0  0  0  0  0  0  0  0  0
   -7.1827   -2.6247  -21.5680 H   0  0  0  0  0  0  0  0  0  0  0  0
   -6.2759   -1.5988  -22.6652 H   0  0  0  0  0  0  0  0  0  0  0  0
   -8.4146    0.3107  -22.4131 N   0  0  0  0  0  0  0  0  0  0  0  0
   -9.5928    0.9543  -21.7754 C   0  0  0  0  0  0  0  0  0  0  0  0
   -9.5768    1.1072  -21.9593 C   0  0  0  0  0  0  0  0  0  0  0  0
   -9.2487    2.8794  -23.6679 C   0  0  0  0  0  0  0  0  0  0  0  0
   -8.4465    5.4282  -22.9602 C   0  0  0  0  0  0  0  0  0  0  0  0
   -7.5398    5.7469  -23.8627 F   0  0  0  0  0  0  0  0  0  0  0  0
   -9.2683    6.4291  -22.7376 F   0  0  0  0  0  0  0  0  0  0  0  0
   -7.8812    5.0328  -21.8396 F   0  0  0  0  0  0  0  0  0  0  0  0
   -7.9932    2.4509  -23.7253 C   0  0  0  0  0  0  0  0  0  0  0  0
   -7.4531    1.1559  -23.1913 C   0  0  0  0  0  0  0  0  0  0  0  0
   -7.0507    0.5551  -24.0109 H   0  0  0  0  0  0  0  0  0  0  0  0
   -6.6143    1.4065  -22.5322 H   0  0  0  0  0  0  0  0  0  0  0  0
  -10.0547    2.1777  -23.6137 H   0  0  0  0  0  0  0  0  0  0  0  0
   -7.2085    3.0694  -24.1486 H   0  0  0  0  0  0  0  0  0  0  0  0
   -9.4492    3.9504  -23.7104 H   0  0  0  0  0  0  0  0  0  0  0  0
  -10.4825    1.8798  -21.7020 H   0  0  0  0  0  0  0  0  0  0  0  0
   -8.8439    1.9498  -21.4604 H   0  0  0  0  0  0  0  0  0  0  0  0
   -9.8651    0.1526  -20.4541 H   0  0  0  0  0  0  0  0  0  0  0  0
  -10.3575    0.5786  -22.7344 H   0  0  0  0  0  0  0  0  0  0  0  0
  1  2  2  0
  2  3  1  0
  3  4  1  0
  4  5  2  0
  5  6  1  0
  6  7  2  0
  7  8  1  0
  8  9  2  0
  9 10  1  0
 10 11  2  0
 11 12  1  0
 12 13  2  0
 12 14  1  0
 11 15  1  0
 10 16  1  0
  9 17  1  0
  7 18  1  0
  5 19  1  0
  3 20  1  0
  3 21  1  0
  2 22  1  0
 22 23  1  0
 23 24  1  0
 24 25  1  0
 25 26  1  0
 26 27  1  0
 26 28  1  0
 26 29  1  0
 25 30  1  0
 30 31  1  0
 31 32  1  0
 31 33  1  0
 30 34  1  0
 30 35  1  0
 25 36  1  0
 24 37  1  0
 24 38  1  0
 23 39  1  0
 23 40  1  0
 13  4  1  0
 31 22  1  0
 13  8  1  0
M  END
>  <cnnaffinities>  (34) 
[4.8594]

>  <score>  (34) 
4.8594

>  <index>  (34) 
35

>  <Smiles>  (34) 
O=C(C(c1c(nc(c2c(c(c(c(c12)[H])[H])[H])[H])[H])[H])([H])[H])N1C(C(C(C(F)(F)F)(C(C1([H])[H])([H])[H])[H])([H])[H])([H])[H]

>  <h>  (34) 
<NA>

>  <Training>  (34) 
True

>  <Success>  (34) 
True

>  <enamine_searched>  (34) 
False

>  <enamine_id>  (34) 
nan

$$$$

     RDKit          3D

 47 50  0  0  0  0  0  0  0  0999 V2000
   -6.0905   -3.4689  -21.2140 O   0  0  0  0  0  0  0  0  0  0  0  0
   -6.6470   -2.6605  -21.9359 C   0  0  0  0  0  0  0  0  0  0  0  0
   -7.3869   -1.4621  -21.2923 C   0  0  0  0  0  0  0  0  0  0  0  0
   -6.5772   -0.8245  -20.1829 C   0  0  0  0  0  0  0  0  0  0  0  0
   -6.8714   -1.0458  -18.8620 C   0  0  0  0  0  0  0  0  0  0  0  0
   -6.1820   -0.5412  -17.8024 N   0  0  0  0  0  0  0  0  0  0  0  0
   -5.1545    0.2238  -18.0678 C   0  0  0  0  0  0  0  0  0  0  0  0
   -4.7182    0.5330  -19.3827 C   0  0  0  0  0  0  0  0  0  0  0  0
   -3.5878    1.3529  -19.6240 C   0  0  0  0  0  0  0  0  0  0  0  0
   -3.1913    1.6352  -20.9023 C   0  0  0  0  0  0  0  0  0  0  0  0
   -3.9119    1.1006  -21.9935 C   0  0  0  0  0  0  0  0  0  0  0  0
   -5.0060    0.2977  -21.7881 C   0  0  0  0  0  0  0  0  0  0  0  0
   -5.4466   -0.0042  -20.4737 C   0  0  0  0  0  0  0  0  0  0  0  0
   -5.5422   -0.1100  -22.6406 H   0  0  0  0  0  0  0  0  0  0  0  0
   -3.5947    1.3330  -23.0046 H   0  0  0  0  0  0  0  0  0  0  0  0
   -2.3342    2.2781  -21.0861 H   0  0  0  0  0  0  0  0  0  0  0  0
   -3.0581    1.7723  -18.7722 H   0  0  0  0  0  0  0  0  0  0  0  0
   -4.6030    0.6281  -17.2160 H   0  0  0  0  0  0  0  0  0  0  0  0
   -7.7194   -1.6688  -18.5822 H   0  0  0  0  0  0  0  0  0  0  0  0
   -8.3119   -1.8626  -20.8612 H   0  0  0  0  0  0  0  0  0  0  0  0
   -7.6904   -0.7099  -22.0287 H   0  0  0  0  0  0  0  0  0  0  0  0
   -6.6117   -2.7868  -23.3132 N   0  0  0  0  0  0  0  0  0  0  0  0
   -5.5610   -3.6036  -23.9120 C   0  0  0  0  0  0  0  0  0  0  0  0
   -6.0990   -4.6276  -24.9079 C   0  0  0  0  0  0  0  0  0  0  0  0
   -7.0957   -4.0163  -25.9089 C   0  0  0  0  0  0  0  0  0  0  0  0
   -7.2796   -2.5180  -25.6770 C   0  0  0  0  0  0  0  0  0  0  0  0
   -7.5707   -2.1521  -24.2119 C   0  0  1  0  0  0  0  0  0  0  0  0
   -9.0143   -2.4601  -23.8318 C   0  0  0  0  0  0  0  0  0  0  0  0
   -9.4024   -3.7275  -23.3992 C   0  0  0  0  0  0  0  0  0  0  0  0
  -10.7304   -3.9993  -23.0895 C   0  0  0  0  0  0  0  0  0  0  0  0
  -11.7002   -3.0113  -23.2098 C   0  0  0  0  0  0  0  0  0  0  0  0
  -11.3254   -1.7493  -23.6467 C   0  0  0  0  0  0  0  0  0  0  0  0
   -9.9967   -1.4806  -23.9724 C   0  0  0  0  0  0  0  0  0  0  0  0
   -9.7369   -0.4977  -24.3606 H   0  0  0  0  0  0  0  0  0  0  0  0
  -12.0814   -0.9784  -23.7631 H   0  0  0  0  0  0  0  0  0  0  0  0
  -12.7386   -3.2226  -22.9699 H   0  0  0  0  0  0  0  0  0  0  0  0
  -11.0074   -4.9834  -22.7338 H   0  0  0  0  0  0  0  0  0  0  0  0
   -8.6582   -4.5103  -23.2919 H   0  0  0  0  0  0  0  0  0  0  0  0
   -7.4433   -1.0643  -24.1370 H   0  0  0  0  0  0  0  0  0  0  0  0
   -6.4025   -1.9664  -26.0305 H   0  0  0  0  0  0  0  0  0  0  0  0
   -8.1064   -2.1552  -26.2892 H   0  0  0  0  0  0  0  0  0  0  0  0
   -8.0673   -4.5158  -25.8215 H   0  0  0  0  0  0  0  0  0  0  0  0
   -6.7648   -4.1825  -26.9397 H   0  0  0  0  0  0  0  0  0  0  0  0
   -5.2519   -5.0736  -25.4373 H   0  0  0  0  0  0  0  0  0  0  0  0
   -6.5712   -5.4466  -24.3604 H   0  0  0  0  0  0  0  0  0  0  0  0
   -4.8487   -2.9420  -24.4214 H   0  0  0  0  0  0  0  0  0  0  0  0
   -5.0283   -4.0961  -23.1018 H   0  0  0  0  0  0  0  0  0  0  0  0
  1  2  2  0
  2  3  1  0
  3  4  1  0
  4  5  2  0
  5  6  1  0
  6  7  2  0
  7  8  1  0
  8  9  2  0
  9 10  1  0
 10 11  2  0
 11 12  1  0
 12 13  2  0
 12 14  1  0
 11 15  1  0
 10 16  1  0
  9 17  1  0
  7 18  1  0
  5 19  1  0
  3 20  1  0
  3 21  1  0
  2 22  1  0
 22 23  1  0
 23 24  1  0
 24 25  1  0
 25 26  1  0
 26 27  1  0
 27 28  1  0
 28 29  2  0
 29 30  1  0
 30 31  2  0
 31 32  1  0
 32 33  2  0
 33 34  1  0
 32 35  1  0
 31 36  1  0
 30 37  1  0
 29 38  1  0
 27 39  1  6
 26 40  1  0
 26 41  1  0
 25 42  1  0
 25 43  1  0
 24 44  1  0
 24 45  1  0
 23 46  1  0
 23 47  1  0
 13  4  1  0
 27 22  1  0
 33 28  1  0
 13  8  1  0
M  END
>  <cnnaffinities>  (35) 
[5.43902, 5.43625, 5.25678]

>  <score>  (35) 
5.43902

>  <index>  (35) 
36

>  <Smiles>  (35) 
O=C(C(c1c(nc(c2c(c(c(c(c12)[H])[H])[H])[H])[H])[H])([H])[H])N1C(C(C(C([C@]1(c1c(c(c(c(c1[H])[H])[H])[H])[H])[H])([H])[H])([H])[H])([H])[H])([H])[H]

>  <h>  (35) 
<NA>

>  <Training>  (35) 
True

>  <Success>  (35) 
True

>  <enamine_searched>  (35) 
False

>  <enamine_id>  (35) 
nan

$$$$

     RDKit          3D

 56 60  0  0  0  0  0  0  0  0999 V2000
  -14.4650   -1.5866  -23.6884 C   0  0  0  0  0  0  0  0  0  0  0  0
  -13.7588   -2.7434  -23.1979 N   0  0  0  0  0  0  0  0  0  0  0  0
  -13.3172   -2.7145  -21.9188 C   0  0  0  0  0  0  0  0  0  0  0  0
  -13.6191   -1.8074  -21.1613 O   0  0  0  0  0  0  0  0  0  0  0  0
  -12.4457   -3.9064  -21.5499 C   0  0  0  0  0  0  0  0  0  0  0  0
  -11.1156   -3.8574  -22.1496 N   0  0  0  0  0  0  0  0  0  0  0  0
   -9.9893   -3.3519  -21.3992 C   0  0  0  0  0  0  0  0  0  0  0  0
   -8.7959   -2.9403  -22.2715 C   0  0  2  0  0  0  0  0  0  0  0  0
   -7.5920   -2.7215  -21.3457 C   0  0  0  0  0  0  0  0  0  0  0  0
   -6.8984   -3.5653  -20.8188 O   0  0  0  0  0  0  0  0  0  0  0  0
   -7.3668   -1.3680  -21.2304 N   0  0  0  0  0  0  0  0  0  0  0  0
   -6.5681   -0.8544  -20.1830 C   0  0  0  0  0  0  0  0  0  0  0  0
   -6.8889   -1.0861  -18.8675 C   0  0  0  0  0  0  0  0  0  0  0  0
   -6.2076   -0.5594  -17.8194 N   0  0  0  0  0  0  0  0  0  0  0  0
   -5.1796    0.2068  -18.0849 C   0  0  0  0  0  0  0  0  0  0  0  0
   -4.7324    0.5090  -19.4022 C   0  0  0  0  0  0  0  0  0  0  0  0
   -3.6075    1.3372  -19.6401 C   0  0  0  0  0  0  0  0  0  0  0  0
   -3.2133    1.6182  -20.9192 C   0  0  0  0  0  0  0  0  0  0  0  0
   -3.9232    1.0844  -22.0191 C   0  0  0  0  0  0  0  0  0  0  0  0
   -5.0118    0.2702  -21.8158 C   0  0  0  0  0  0  0  0  0  0  0  0
   -5.4452   -0.0279  -20.4949 C   0  0  0  0  0  0  0  0  0  0  0  0
   -5.5494   -0.1529  -22.6595 H   0  0  0  0  0  0  0  0  0  0  0  0
   -3.6077    1.3256  -23.0306 H   0  0  0  0  0  0  0  0  0  0  0  0
   -2.3567    2.2620  -21.0987 H   0  0  0  0  0  0  0  0  0  0  0  0
   -3.0889    1.7576  -18.7839 H   0  0  0  0  0  0  0  0  0  0  0  0
   -4.6362    0.6319  -17.2395 H   0  0  0  0  0  0  0  0  0  0  0  0
   -7.7350   -1.7212  -18.6068 H   0  0  0  0  0  0  0  0  0  0  0  0
   -8.3663   -0.5599  -21.9065 C   0  0  0  0  0  0  0  0  0  0  0  0
   -9.0151   -1.5274  -22.9034 C   0  0  2  0  0  0  0  0  0  0  0  0
  -10.4648   -1.1767  -23.2274 C   0  0  0  0  0  0  0  0  0  0  0  0
  -10.9135   -1.9410  -23.8697 H   0  0  0  0  0  0  0  0  0  0  0  0
  -10.5362   -0.2118  -23.7329 H   0  0  0  0  0  0  0  0  0  0  0  0
  -11.0741   -1.1130  -22.3189 H   0  0  0  0  0  0  0  0  0  0  0  0
   -8.4349   -1.5089  -23.8348 H   0  0  0  0  0  0  0  0  0  0  0  0
   -9.1075   -0.1766  -21.1904 H   0  0  0  0  0  0  0  0  0  0  0  0
   -7.9084    0.2988  -22.4039 H   0  0  0  0  0  0  0  0  0  0  0  0
   -8.5161   -4.0096  -23.2978 C   0  0  0  0  0  0  0  0  0  0  0  0
   -7.2605   -4.1123  -23.9016 C   0  0  0  0  0  0  0  0  0  0  0  0
   -7.0270   -5.0203  -24.9219 C   0  0  0  0  0  0  0  0  0  0  0  0
   -8.0538   -5.8651  -25.3539 C   0  0  0  0  0  0  0  0  0  0  0  0
   -9.3060   -5.7736  -24.7695 C   0  0  0  0  0  0  0  0  0  0  0  0
   -9.5334   -4.8412  -23.7522 C   0  0  0  0  0  0  0  0  0  0  0  0
  -10.9066   -4.7128  -23.1932 C   0  0  0  0  0  0  0  0  0  0  0  0
  -11.8326   -5.3406  -23.6683 O   0  0  0  0  0  0  0  0  0  0  0  0
  -10.1275   -6.4088  -25.0913 H   0  0  0  0  0  0  0  0  0  0  0  0
   -7.8683   -6.5700  -26.1618 H   0  0  0  0  0  0  0  0  0  0  0  0
   -6.0490   -5.0614  -25.3970 H   0  0  0  0  0  0  0  0  0  0  0  0
   -6.4634   -3.4582  -23.5657 H   0  0  0  0  0  0  0  0  0  0  0  0
  -10.3067   -2.4898  -20.8154 H   0  0  0  0  0  0  0  0  0  0  0  0
   -9.6549   -4.1183  -20.7124 H   0  0  0  0  0  0  0  0  0  0  0  0
  -12.4341   -4.0440  -20.4652 H   0  0  0  0  0  0  0  0  0  0  0  0
  -12.9147   -4.7604  -22.0317 H   0  0  0  0  0  0  0  0  0  0  0  0
  -13.6122   -3.5726  -23.7517 H   0  0  0  0  0  0  0  0  0  0  0  0
  -13.8092   -0.7094  -23.6525 H   0  0  0  0  0  0  0  0  0  0  0  0
  -15.3092   -1.3802  -23.0298 H   0  0  0  0  0  0  0  0  0  0  0  0
  -14.8101   -1.7498  -24.7087 H   0  0  0  0  0  0  0  0  0  0  0  0
  1  2  1  0
  2  3  1  0
  3  4  2  0
  3  5  1  0
  5  6  1  0
  6  7  1  0
  8  7  1  1
  8  9  1  0
  9 10  2  0
  9 11  1  0
 11 12  1  0
 12 13  2  0
 13 14  1  0
 14 15  2  0
 15 16  1  0
 16 17  2  0
 17 18  1  0
 18 19  2  0
 19 20  1  0
 20 21  2  0
 20 22  1  0
 19 23  1  0
 18 24  1  0
 17 25  1  0
 15 26  1  0
 13 27  1  0
 11 28  1  0
 28 29  1  0
 29 30  1  0
 30 31  1  0
 30 32  1  0
 30 33  1  0
 29 34  1  6
 28 35  1  0
 28 36  1  0
  8 37  1  0
 37 38  2  0
 38 39  1  0
 39 40  2  0
 40 41  1  0
 41 42  2  0
 42 43  1  0
 43 44  2  0
 41 45  1  0
 40 46  1  0
 39 47  1  0
 38 48  1  0
  7 49  1  0
  7 50  1  0
  5 51  1  0
  5 52  1  0
  2 53  1  0
  1 54  1  0
  1 55  1  0
  1 56  1  0
 43  6  1  0
 29  8  1  0
 42 37  1  0
 21 12  1  0
 21 16  1  0
M  END
>  <cnnaffinities>  (36) 
[6.25509]

>  <score>  (36) 
6.25509

>  <index>  (36) 
37

>  <Smiles>  (36) 
C(N(C(=O)C(N1C([C@@]2(C(=O)N(c3c(nc(c4c(c(c(c(c34)[H])[H])[H])[H])[H])[H])C([C@@]2(C([H])([H])[H])[H])([H])[H])c2c(c(c(c(c2C1=O)[H])[H])[H])[H])([H])[H])([H])[H])[H])([H])([H])[H]

>  <h>  (36) 
<NA>

>  <Training>  (36) 
True

>  <Success>  (36) 
True

>  <enamine_searched>  (36) 
False

>  <enamine_id>  (36) 
nan

$$$$

     RDKit          3D

 46 48  0  0  0  0  0  0  0  0999 V2000
   -8.1587   -4.6951  -26.5426 C   0  0  0  0  0  0  0  0  0  0  0  0
   -8.6559   -4.9607  -25.1193 C   0  0  1  0  0  0  0  0  0  0  0  0
   -7.5970   -5.5301  -24.1813 C   0  0  0  0  0  0  0  0  0  0  0  0
   -6.6281   -4.5253  -23.5566 C   0  0  1  0  0  0  0  0  0  0  0  0
   -5.4386   -4.1712  -24.4516 C   0  0  0  0  0  0  0  0  0  0  0  0
   -4.6720   -3.7572  -23.8070 H   0  0  0  0  0  0  0  0  0  0  0  0
   -5.6695   -3.4305  -25.2204 H   0  0  0  0  0  0  0  0  0  0  0  0
   -5.0192   -5.0603  -24.9412 H   0  0  0  0  0  0  0  0  0  0  0  0
   -7.3265   -3.3388  -23.0143 N   0  0  0  0  0  0  0  0  0  0  0  0
   -6.7234   -2.7043  -21.9378 C   0  0  0  0  0  0  0  0  0  0  0  0
   -5.6783   -3.1195  -21.4630 O   0  0  0  0  0  0  0  0  0  0  0  0
   -7.4075   -1.4704  -21.2817 C   0  0  0  0  0  0  0  0  0  0  0  0
   -6.5778   -0.8345  -20.1863 C   0  0  0  0  0  0  0  0  0  0  0  0
   -6.8717   -1.0473  -18.8651 C   0  0  0  0  0  0  0  0  0  0  0  0
   -6.1845   -0.5422  -17.8051 N   0  0  0  0  0  0  0  0  0  0  0  0
   -5.1558    0.2226  -18.0685 C   0  0  0  0  0  0  0  0  0  0  0  0
   -4.7186    0.5287  -19.3835 C   0  0  0  0  0  0  0  0  0  0  0  0
   -3.5892    1.3525  -19.6248 C   0  0  0  0  0  0  0  0  0  0  0  0
   -3.1904    1.6330  -20.9028 C   0  0  0  0  0  0  0  0  0  0  0  0
   -3.9072    1.0959  -21.9940 C   0  0  0  0  0  0  0  0  0  0  0  0
   -5.0006    0.2907  -21.7872 C   0  0  0  0  0  0  0  0  0  0  0  0
   -5.4443   -0.0143  -20.4747 C   0  0  0  0  0  0  0  0  0  0  0  0
   -5.5350   -0.1233  -22.6368 H   0  0  0  0  0  0  0  0  0  0  0  0
   -3.5854    1.3242  -23.0053 H   0  0  0  0  0  0  0  0  0  0  0  0
   -2.3316    2.2749  -21.0860 H   0  0  0  0  0  0  0  0  0  0  0  0
   -3.0582    1.7731  -18.7735 H   0  0  0  0  0  0  0  0  0  0  0  0
   -4.6032    0.6279  -17.2169 H   0  0  0  0  0  0  0  0  0  0  0  0
   -7.7198   -1.6703  -18.5847 H   0  0  0  0  0  0  0  0  0  0  0  0
   -7.6719   -0.7131  -22.0317 H   0  0  0  0  0  0  0  0  0  0  0  0
   -8.3593   -1.8079  -20.8474 H   0  0  0  0  0  0  0  0  0  0  0  0
   -8.4106   -2.7193  -23.7940 C   0  0  1  0  0  0  0  0  0  0  0  0
   -7.9397   -1.6591  -24.8007 C   0  0  0  0  0  0  0  0  0  0  0  0
   -7.4436   -2.0880  -25.6756 H   0  0  0  0  0  0  0  0  0  0  0  0
   -8.7993   -1.0846  -25.1701 H   0  0  0  0  0  0  0  0  0  0  0  0
   -7.2439   -0.9496  -24.3424 H   0  0  0  0  0  0  0  0  0  0  0  0
   -9.3304   -3.7771  -24.4252 C   0  0  0  0  0  0  0  0  0  0  0  0
   -9.9800   -4.1693  -23.6356 H   0  0  0  0  0  0  0  0  0  0  0  0
   -9.9957   -3.2763  -25.1361 H   0  0  0  0  0  0  0  0  0  0  0  0
   -9.0336   -2.1942  -23.0638 H   0  0  0  0  0  0  0  0  0  0  0  0
   -6.1940   -5.0183  -22.6841 H   0  0  0  0  0  0  0  0  0  0  0  0
   -8.0957   -6.0588  -23.3643 H   0  0  0  0  0  0  0  0  0  0  0  0
   -7.0122   -6.2882  -24.7141 H   0  0  0  0  0  0  0  0  0  0  0  0
   -9.4288   -5.7359  -25.2248 H   0  0  0  0  0  0  0  0  0  0  0  0
   -7.9240   -5.6406  -27.0469 H   0  0  0  0  0  0  0  0  0  0  0  0
   -8.9308   -4.1942  -27.1380 H   0  0  0  0  0  0  0  0  0  0  0  0
   -7.2555   -4.0808  -26.5814 H   0  0  0  0  0  0  0  0  0  0  0  0
  1  2  1  0
  2  3  1  0
  3  4  1  0
  4  5  1  0
  5  6  1  0
  5  7  1  0
  5  8  1  0
  4  9  1  0
  9 10  1  0
 10 11  2  0
 10 12  1  0
 12 13  1  0
 13 14  2  0
 14 15  1  0
 15 16  2  0
 16 17  1  0
 17 18  2  0
 18 19  1  0
 19 20  2  0
 20 21  1  0
 21 22  2  0
 21 23  1  0
 20 24  1  0
 19 25  1  0
 18 26  1  0
 16 27  1  0
 14 28  1  0
 12 29  1  0
 12 30  1  0
  9 31  1  0
 31 32  1  0
 32 33  1  0
 32 34  1  0
 32 35  1  0
 31 36  1  0
 36 37  1  0
 36 38  1  0
 31 39  1  1
  4 40  1  1
  3 41  1  0
  3 42  1  0
  2 43  1  6
  1 44  1  0
  1 45  1  0
  1 46  1  0
 36  2  1  0
 22 13  1  0
 22 17  1  0
M  END
>  <cnnaffinities>  (37) 
[5.27422, 5.33534]

>  <score>  (37) 
5.27422

>  <index>  (37) 
38

>  <Smiles>  (37) 
C([C@]1(C([C@@](C([H])([H])[H])(N(C(=O)C(c2c(nc(c3c(c(c(c(c23)[H])[H])[H])[H])[H])[H])([H])[H])[C@@](C([H])([H])[H])(C1([H])[H])[H])[H])([H])[H])[H])([H])([H])[H]

>  <h>  (37) 
<NA>

>  <Training>  (37) 
True

>  <Success>  (37) 
True

>  <enamine_searched>  (37) 
False

>  <enamine_id>  (37) 
nan

$$$$

     RDKit          3D

 40 44  0  0  0  0  0  0  0  0999 V2000
   -7.2313    0.9540  -25.6024 C   0  0  0  0  0  0  0  0  0  0  0  0
   -6.4986   -0.3683  -25.4053 C   0  0  0  0  0  0  0  0  0  0  0  0
   -5.2949   -0.4647  -25.5742 O   0  0  0  0  0  0  0  0  0  0  0  0
   -7.2541   -1.4515  -25.0437 N   0  0  0  0  0  0  0  0  0  0  0  0
   -6.6453   -2.7647  -24.7202 C   0  0  0  0  0  0  0  0  0  0  0  0
   -7.8230   -3.4987  -24.0345 C   0  0  2  0  0  0  0  0  0  0  0  0
   -8.9948   -2.9684  -24.8669 C   0  0  0  0  0  0  0  0  0  0  0  0
   -8.6596   -1.5012  -24.5576 C   0  0  1  0  0  0  0  0  0  0  0  0
   -8.5974   -1.5850  -23.0824 C   0  0  0  0  0  0  0  0  0  0  0  0
   -8.1602   -0.6181  -22.1227 C   0  0  0  0  0  0  0  0  0  0  0  0
   -8.3109    0.5820  -22.0802 O   0  0  0  0  0  1  0  0  0  0  0  0
   -7.4065   -1.3993  -21.1908 N   0  0  0  0  0  0  0  0  0  0  0  0
   -6.5882   -0.8206  -20.1761 C   0  0  0  0  0  0  0  0  0  0  0  0
   -6.8822   -1.0542  -18.8589 C   0  0  0  0  0  0  0  0  0  0  0  0
   -6.1851   -0.5419  -17.8138 N   0  0  0  0  0  0  0  0  0  0  0  0
   -5.1575    0.2241  -18.0728 C   0  0  0  0  0  0  0  0  0  0  0  0
   -4.7191    0.5326  -19.3912 C   0  0  0  0  0  0  0  0  0  0  0  0
   -3.5841    1.3545  -19.6311 C   0  0  0  0  0  0  0  0  0  0  0  0
   -3.1870    1.6246  -20.9107 C   0  0  0  0  0  0  0  0  0  0  0  0
   -3.8958    1.0798  -22.0038 C   0  0  0  0  0  0  0  0  0  0  0  0
   -4.9857    0.2743  -21.7958 C   0  0  0  0  0  0  0  0  0  0  0  0
   -5.4435   -0.0078  -20.4810 C   0  0  0  0  0  0  0  0  0  0  0  0
   -5.5114   -0.1549  -22.6440 H   0  0  0  0  0  0  0  0  0  0  0  0
   -3.5763    1.2932  -23.0195 H   0  0  0  0  0  0  0  0  0  0  0  0
   -2.3290    2.2638  -21.0989 H   0  0  0  0  0  0  0  0  0  0  0  0
   -3.0533    1.7768  -18.7813 H   0  0  0  0  0  0  0  0  0  0  0  0
   -4.6056    0.6253  -17.2187 H   0  0  0  0  0  0  0  0  0  0  0  0
   -7.7356   -1.6738  -18.5973 H   0  0  0  0  0  0  0  0  0  0  0  0
   -7.2469   -2.7316  -21.6327 C   0  0  0  0  0  0  0  0  0  0  0  0
   -6.5228   -3.5770  -21.1619 O   0  0  0  0  0  0  0  0  0  0  0  0
   -8.0963   -2.8212  -22.7428 N   0  0  0  0  0  0  0  0  0  0  0  0
   -9.2986   -0.7217  -24.9741 H   0  0  0  0  0  0  0  0  0  0  0  0
   -9.9612   -3.2803  -24.4791 H   0  0  0  0  0  0  0  0  0  0  0  0
   -8.9161   -3.2075  -25.9298 H   0  0  0  0  0  0  0  0  0  0  0  0
   -7.7293   -4.5729  -23.9232 H   0  0  0  0  0  0  0  0  0  0  0  0
   -5.7856   -2.6792  -24.0512 H   0  0  0  0  0  0  0  0  0  0  0  0
   -6.3240   -3.2734  -25.6332 H   0  0  0  0  0  0  0  0  0  0  0  0
   -6.4987    1.6971  -25.9132 H   0  0  0  0  0  0  0  0  0  0  0  0
   -7.7133    1.2968  -24.6828 H   0  0  0  0  0  0  0  0  0  0  0  0
   -7.9969    0.8935  -26.3815 H   0  0  0  0  0  0  0  0  0  0  0  0
  1  2  1  0
  2  3  2  0
  2  4  1  0
  4  5  1  0
  5  6  1  0
  6  7  1  0
  7  8  1  0
  8  9  1  0
  9 10  2  0
 10 11  1  0
 10 12  1  0
 12 13  1  0
 13 14  2  0
 14 15  1  0
 15 16  2  0
 16 17  1  0
 17 18  2  0
 18 19  1  0
 19 20  2  0
 20 21  1  0
 21 22  2  0
 21 23  1  0
 20 24  1  0
 19 25  1  0
 18 26  1  0
 16 27  1  0
 14 28  1  0
 12 29  1  0
 29 30  2  0
 29 31  1  0
  8 32  1  1
  7 33  1  0
  7 34  1  0
  6 35  1  1
  5 36  1  0
  5 37  1  0
  1 38  1  0
  1 39  1  0
  1 40  1  0
  8  4  1  0
 31  9  1  0
 31  6  1  0
 22 13  1  0
 22 17  1  0
M  CHG  1  11  -1
M  END
>  <cnnaffinities>  (38) 
[5.5282, 5.50027, 5.01482]

>  <score>  (38) 
5.5282

>  <index>  (38) 
39

>  <Smiles>  (38) 
C(C(=O)N1C([C@@]2(C([C@]1(c1c([O-])n(c3c(nc(c4c(c(c(c(c34)[H])[H])[H])[H])[H])[H])c(=O)n21)[H])([H])[H])[H])([H])[H])([H])([H])[H]

>  <h>  (38) 
<NA>

>  <Training>  (38) 
True

>  <Success>  (38) 
True

>  <enamine_searched>  (38) 
False

>  <enamine_id>  (38) 
nan

$$$$

     RDKit          3D

 40 42  0  0  0  0  0  0  0  0999 V2000
   -9.3041   -6.6300  -25.1069 C   0  0  0  0  0  0  0  0  0  0  0  0
   -8.9930   -5.8097  -23.8568 C   0  0  0  0  0  0  0  0  0  0  0  0
   -7.5552   -5.9893  -23.3972 C   0  0  0  0  0  0  0  0  0  0  0  0
   -7.2613   -5.1694  -22.1506 C   0  0  0  0  0  0  0  0  0  0  0  0
   -7.6214   -3.7622  -22.3158 N   0  0  0  0  0  0  0  0  0  0  0  0
   -6.7879   -2.8015  -21.7708 C   0  0  0  0  0  0  0  0  0  0  0  0
   -5.5891   -2.9855  -21.6706 O   0  0  0  0  0  0  0  0  0  0  0  0
   -7.4216   -1.4841  -21.2562 C   0  0  0  0  0  0  0  0  0  0  0  0
   -6.5816   -0.8260  -20.1829 C   0  0  0  0  0  0  0  0  0  0  0  0
   -6.8728   -1.0419  -18.8624 C   0  0  0  0  0  0  0  0  0  0  0  0
   -6.1822   -0.5419  -17.8060 N   0  0  0  0  0  0  0  0  0  0  0  0
   -5.1536    0.2231  -18.0701 C   0  0  0  0  0  0  0  0  0  0  0  0
   -4.7182    0.5297  -19.3843 C   0  0  0  0  0  0  0  0  0  0  0  0
   -3.5880    1.3526  -19.6220 C   0  0  0  0  0  0  0  0  0  0  0  0
   -3.1870    1.6322  -20.8997 C   0  0  0  0  0  0  0  0  0  0  0  0
   -3.9027    1.0935  -21.9914 C   0  0  0  0  0  0  0  0  0  0  0  0
   -4.9969    0.2888  -21.7867 C   0  0  0  0  0  0  0  0  0  0  0  0
   -5.4443   -0.0116  -20.4753 C   0  0  0  0  0  0  0  0  0  0  0  0
   -5.5200   -0.1407  -22.6345 H   0  0  0  0  0  0  0  0  0  0  0  0
   -3.5788    1.3189  -23.0033 H   0  0  0  0  0  0  0  0  0  0  0  0
   -2.3282    2.2747  -21.0814 H   0  0  0  0  0  0  0  0  0  0  0  0
   -3.0605    1.7736  -18.7693 H   0  0  0  0  0  0  0  0  0  0  0  0
   -4.6042    0.6275  -17.2170 H   0  0  0  0  0  0  0  0  0  0  0  0
   -7.7182   -1.6677  -18.5809 H   0  0  0  0  0  0  0  0  0  0  0  0
   -7.5639   -0.7946  -22.0995 H   0  0  0  0  0  0  0  0  0  0  0  0
   -8.4241   -1.6905  -20.8502 H   0  0  0  0  0  0  0  0  0  0  0  0
   -8.9713   -3.5133  -22.7992 C   0  0  0  0  0  0  0  0  0  0  0  0
   -9.2762   -4.3291  -24.0530 C   0  0  0  0  0  0  0  0  0  0  0  0
  -10.3243   -4.1829  -24.3323 H   0  0  0  0  0  0  0  0  0  0  0  0
   -8.6794   -3.9613  -24.8932 H   0  0  0  0  0  0  0  0  0  0  0  0
   -9.0718   -2.4525  -23.0285 H   0  0  0  0  0  0  0  0  0  0  0  0
   -9.7176   -3.7531  -22.0252 H   0  0  0  0  0  0  0  0  0  0  0  0
   -7.8172   -5.6068  -21.3070 H   0  0  0  0  0  0  0  0  0  0  0  0
   -6.2040   -5.2150  -21.8954 H   0  0  0  0  0  0  0  0  0  0  0  0
   -6.8782   -5.6965  -24.2043 H   0  0  0  0  0  0  0  0  0  0  0  0
   -7.3604   -7.0494  -23.1957 H   0  0  0  0  0  0  0  0  0  0  0  0
   -9.6289   -6.1515  -23.0404 H   0  0  0  0  0  0  0  0  0  0  0  0
   -9.1204   -7.7003  -24.9478 H   0  0  0  0  0  0  0  0  0  0  0  0
  -10.3482   -6.5117  -25.4231 H   0  0  0  0  0  0  0  0  0  0  0  0
   -8.6686   -6.3076  -25.9412 H   0  0  0  0  0  0  0  0  0  0  0  0
  1  2  1  0
  2  3  1  0
  3  4  1  0
  4  5  1  0
  5  6  1  0
  6  7  2  0
  6  8  1  0
  8  9  1  0
  9 10  2  0
 10 11  1  0
 11 12  2  0
 12 13  1  0
 13 14  2  0
 14 15  1  0
 15 16  2  0
 16 17  1  0
 17 18  2  0
 17 19  1  0
 16 20  1  0
 15 21  1  0
 14 22  1  0
 12 23  1  0
 10 24  1  0
  8 25  1  0
  8 26  1  0
  5 27  1  0
 27 28  1  0
 28 29  1  0
 28 30  1  0
 27 31  1  0
 27 32  1  0
  4 33  1  0
  4 34  1  0
  3 35  1  0
  3 36  1  0
  2 37  1  0
  1 38  1  0
  1 39  1  0
  1 40  1  0
 28  2  1  0
 18  9  1  0
 18 13  1  0
M  END
>  <cnnaffinities>  (39) 
[4.77437, 4.77396]

>  <score>  (39) 
4.77437

>  <index>  (39) 
40

>  <Smiles>  (39) 
C(C1(C(C(N(C(=O)C(c2c(nc(c3c(c(c(c(c23)[H])[H])[H])[H])[H])[H])([H])[H])C(C1([H])[H])([H])[H])([H])[H])([H])[H])[H])([H])([H])[H]

>  <h>  (39) 
<NA>

>  <Training>  (39) 
True

>  <Success>  (39) 
True

>  <enamine_searched>  (39) 
False

>  <enamine_id>  (39) 
nan

$$$$

     RDKit          3D

 67 71  0  0  0  0  0  0  0  0999 V2000
   -7.6224    3.0129  -21.9741 C   0  0  0  0  0  0  0  0  0  0  0  0
   -8.7532    2.5010  -22.7326 N   0  0  0  0  0  0  0  0  0  0  0  0
   -8.4771    1.7086  -23.8067 C   0  0  0  0  0  0  0  0  0  0  0  0
   -7.3323    1.4641  -24.1574 O   0  0  0  0  0  0  0  0  0  0  0  0
   -9.6781    1.1163  -24.5373 C   0  0  0  0  0  0  0  0  0  0  0  0
  -10.1226   -0.0799  -23.8586 N   0  0  0  0  0  0  0  0  0  0  0  0
   -9.2585   -1.2485  -23.8787 C   0  0  0  0  0  0  0  0  0  0  0  0
   -9.3055   -1.9881  -22.5143 C   0  0  2  0  0  0  0  0  0  0  0  0
   -8.7029   -1.0345  -21.4409 C   0  0  0  0  0  0  0  0  0  0  0  0
   -9.2306   -0.0616  -20.9442 O   0  0  0  0  0  0  0  0  0  0  0  0
   -7.4066   -1.4382  -21.1807 N   0  0  0  0  0  0  0  0  0  0  0  0
   -6.6235   -0.8300  -20.1678 C   0  0  0  0  0  0  0  0  0  0  0  0
   -6.9318   -1.0457  -18.8458 C   0  0  0  0  0  0  0  0  0  0  0  0
   -6.2163   -0.5533  -17.8090 N   0  0  0  0  0  0  0  0  0  0  0  0
   -5.1741    0.1884  -18.0884 C   0  0  0  0  0  0  0  0  0  0  0  0
   -4.7435    0.4957  -19.4084 C   0  0  0  0  0  0  0  0  0  0  0  0
   -3.6235    1.3323  -19.6525 C   0  0  0  0  0  0  0  0  0  0  0  0
   -3.2590    1.6466  -20.9326 C   0  0  0  0  0  0  0  0  0  0  0  0
   -4.0038    1.1495  -22.0244 C   0  0  0  0  0  0  0  0  0  0  0  0
   -5.0980    0.3390  -21.8151 C   0  0  0  0  0  0  0  0  0  0  0  0
   -5.4901   -0.0198  -20.4952 C   0  0  0  0  0  0  0  0  0  0  0  0
   -5.6962    0.0186  -22.6640 H   0  0  0  0  0  0  0  0  0  0  0  0
   -3.7206    1.4196  -23.0372 H   0  0  0  0  0  0  0  0  0  0  0  0
   -2.4114    2.3027  -21.1125 H   0  0  0  0  0  0  0  0  0  0  0  0
   -3.0894    1.7369  -18.7973 H   0  0  0  0  0  0  0  0  0  0  0  0
   -4.6126    0.5936  -17.2466 H   0  0  0  0  0  0  0  0  0  0  0  0
   -7.7919   -1.6591  -18.5863 H   0  0  0  0  0  0  0  0  0  0  0  0
   -6.9737   -2.5765  -21.9678 C   0  0  0  0  0  0  0  0  0  0  0  0
   -8.3100   -3.1811  -22.4464 C   0  0  2  0  0  0  0  0  0  0  0  0
   -8.2055   -3.9819  -23.7438 C   0  0  0  0  0  0  0  0  0  0  0  0
   -7.2667   -5.4873  -23.5253 S   0  0  0  0  0  0  0  0  0  0  0  0
   -5.8677   -5.1266  -23.3637 O   0  0  0  0  0  0  0  0  0  0  0  0
   -7.9587   -6.3005  -22.5325 O   0  0  0  0  0  0  0  0  0  0  0  0
   -7.4176   -6.2532  -24.9901 N   0  0  0  0  0  0  0  0  0  0  0  0
   -8.6694   -6.9472  -25.2554 C   0  0  0  0  0  0  0  0  0  0  0  0
   -9.4948   -6.2776  -25.5414 H   0  0  0  0  0  0  0  0  0  0  0  0
   -8.5029   -7.6520  -26.0739 H   0  0  0  0  0  0  0  0  0  0  0  0
   -8.9553   -7.5124  -24.3668 H   0  0  0  0  0  0  0  0  0  0  0  0
   -6.7479   -5.6506  -26.1351 C   0  0  0  0  0  0  0  0  0  0  0  0
   -7.2955   -4.8000  -26.5691 H   0  0  0  0  0  0  0  0  0  0  0  0
   -6.6437   -6.4142  -26.9101 H   0  0  0  0  0  0  0  0  0  0  0  0
   -5.7478   -5.3242  -25.8425 H   0  0  0  0  0  0  0  0  0  0  0  0
   -9.2076   -4.2648  -24.0855 H   0  0  0  0  0  0  0  0  0  0  0  0
   -7.7043   -3.3911  -24.5209 H   0  0  0  0  0  0  0  0  0  0  0  0
   -8.6434   -3.8506  -21.6469 H   0  0  0  0  0  0  0  0  0  0  0  0
   -6.3429   -2.2610  -22.8125 H   0  0  0  0  0  0  0  0  0  0  0  0
   -6.3912   -3.2863  -21.3746 H   0  0  0  0  0  0  0  0  0  0  0  0
  -10.7746   -2.3107  -22.2546 C   0  0  0  0  0  0  0  0  0  0  0  0
  -11.2155   -3.4450  -21.5570 C   0  0  0  0  0  0  0  0  0  0  0  0
  -12.5441   -3.5275  -21.1728 C   0  0  0  0  0  0  0  0  0  0  0  0
  -12.9277   -4.4373  -20.2627 F   0  0  0  0  0  0  0  0  0  0  0  0
  -13.5169   -2.6452  -21.6169 C   0  0  0  0  0  0  0  0  0  0  0  0
  -13.1069   -1.5717  -22.3740 C   0  0  0  0  0  0  0  0  0  0  0  0
  -11.7512   -1.3747  -22.6344 C   0  0  0  0  0  0  0  0  0  0  0  0
  -11.3658   -0.0962  -23.2993 C   0  0  0  0  0  0  0  0  0  0  0  0
  -12.1208    0.8690  -23.3257 O   0  0  0  0  0  0  0  0  0  0  0  0
  -13.8245   -0.8617  -22.7691 H   0  0  0  0  0  0  0  0  0  0  0  0
  -14.5485   -2.7970  -21.3214 H   0  0  0  0  0  0  0  0  0  0  0  0
  -10.5366   -4.2125  -21.2057 H   0  0  0  0  0  0  0  0  0  0  0  0
   -9.5665   -1.9240  -24.6897 H   0  0  0  0  0  0  0  0  0  0  0  0
   -8.2446   -0.8950  -24.0876 H   0  0  0  0  0  0  0  0  0  0  0  0
   -9.4168    0.8951  -25.5821 H   0  0  0  0  0  0  0  0  0  0  0  0
  -10.5050    1.8217  -24.5253 H   0  0  0  0  0  0  0  0  0  0  0  0
   -9.6227    2.3406  -22.2408 H   0  0  0  0  0  0  0  0  0  0  0  0
   -7.9401    3.7507  -21.2376 H   0  0  0  0  0  0  0  0  0  0  0  0
   -7.0895    2.2034  -21.4565 H   0  0  0  0  0  0  0  0  0  0  0  0
   -6.9332    3.5086  -22.6630 H   0  0  0  0  0  0  0  0  0  0  0  0
  1  2  1  0
  2  3  1  0
  3  4  2  0
  3  5  1  0
  5  6  1  0
  6  7  1  0
  8  7  1  6
  8  9  1  0
  9 10  2  0
  9 11  1  0
 11 12  1  0
 12 13  2  0
 13 14  1  0
 14 15  2  0
 15 16  1  0
 16 17  2  0
 17 18  1  0
 18 19  2  0
 19 20  1  0
 20 21  2  0
 20 22  1  0
 19 23  1  0
 18 24  1  0
 17 25  1  0
 15 26  1  0
 13 27  1  0
 11 28  1  0
 28 29  1  0
 29 30  1  0
 30 31  1  0
 31 32  2  0
 31 33  2  0
 31 34  1  0
 34 35  1  0
 35 36  1  0
 35 37  1  0
 35 38  1  0
 34 39  1  0
 39 40  1  0
 39 41  1  0
 39 42  1  0
 30 43  1  0
 30 44  1  0
 29 45  1  1
 28 46  1  0
 28 47  1  0
  8 48  1  0
 48 49  2  0
 49 50  1  0
 50 51  1  0
 50 52  2  0
 52 53  1  0
 53 54  2  0
 54 55  1  0
 55 56  2  0
 53 57  1  0
 52 58  1  0
 49 59  1  0
  7 60  1  0
  7 61  1  0
  5 62  1  0
  5 63  1  0
  2 64  1  0
  1 65  1  0
  1 66  1  0
  1 67  1  0
 55  6  1  0
 29  8  1  0
 54 48  1  0
 21 12  1  0
 21 16  1  0
M  END
>  <cnnaffinities>  (40) 
[6.95499]

>  <score>  (40) 
6.95499

>  <index>  (40) 
41

>  <Smiles>  (40) 
C(N(C(=O)C(N1C([C@@]2(C(=O)N(c3c(nc(c4c(c(c(c(c34)[H])[H])[H])[H])[H])[H])C([C@@]2(C(S(=O)(=O)N(C([H])([H])[H])C([H])([H])[H])([H])[H])[H])([H])[H])c2c(c(F)c(c(c2C1=O)[H])[H])[H])([H])[H])([H])[H])[H])([H])([H])[H]

>  <h>  (40) 
<NA>

>  <Training>  (40) 
True

>  <Success>  (40) 
True

>  <enamine_searched>  (40) 
False

>  <enamine_id>  (40) 
nan

$$$$

     RDKit          3D

 67 72  0  0  0  0  0  0  0  0999 V2000
   -7.5014    3.2376  -21.8793 C   0  0  0  0  0  0  0  0  0  0  0  0
   -8.5351    2.7132  -22.7380 N   0  0  0  0  0  0  0  0  0  0  0  0
   -8.1701    2.0085  -23.8299 C   0  0  0  0  0  0  0  0  0  0  0  0
   -6.9993    1.8286  -24.1420 O   0  0  0  0  0  0  0  0  0  0  0  0
   -9.3190    1.4283  -24.6404 C   0  0  0  0  0  0  0  0  0  0  0  0
   -9.8454    0.2477  -23.9939 N   0  0  0  0  0  0  0  0  0  0  0  0
   -9.0528   -0.9673  -24.0057 C   0  0  0  0  0  0  0  0  0  0  0  0
   -9.1898   -1.7503  -22.6684 C   0  0  2  0  0  0  0  0  0  0  0  0
   -8.6119   -0.9027  -21.5088 C   0  0  0  0  0  0  0  0  0  0  0  0
   -9.1268    0.0559  -20.9617 O   0  0  0  0  0  0  0  0  0  0  0  0
   -7.3700   -1.3958  -21.1911 N   0  0  0  0  0  0  0  0  0  0  0  0
   -6.5958   -0.8110  -20.1647 C   0  0  0  0  0  0  0  0  0  0  0  0
   -6.9220   -1.0351  -18.8500 C   0  0  0  0  0  0  0  0  0  0  0  0
   -6.2095   -0.5489  -17.8088 N   0  0  0  0  0  0  0  0  0  0  0  0
   -5.1653    0.1939  -18.0800 C   0  0  0  0  0  0  0  0  0  0  0  0
   -4.7277    0.5151  -19.3959 C   0  0  0  0  0  0  0  0  0  0  0  0
   -3.6021    1.3443  -19.6454 C   0  0  0  0  0  0  0  0  0  0  0  0
   -3.2381    1.6595  -20.9259 C   0  0  0  0  0  0  0  0  0  0  0  0
   -3.9857    1.1681  -22.0200 C   0  0  0  0  0  0  0  0  0  0  0  0
   -5.0794    0.3615  -21.8069 C   0  0  0  0  0  0  0  0  0  0  0  0
   -5.4702    0.0069  -20.4859 C   0  0  0  0  0  0  0  0  0  0  0  0
   -5.6725    0.0264  -22.6535 H   0  0  0  0  0  0  0  0  0  0  0  0
   -3.7034    1.4363  -23.0339 H   0  0  0  0  0  0  0  0  0  0  0  0
   -2.3863    2.3099  -21.1087 H   0  0  0  0  0  0  0  0  0  0  0  0
   -3.0595    1.7425  -18.7931 H   0  0  0  0  0  0  0  0  0  0  0  0
   -4.6027    0.5841  -17.2324 H   0  0  0  0  0  0  0  0  0  0  0  0
   -7.7897   -1.6419  -18.5963 H   0  0  0  0  0  0  0  0  0  0  0  0
   -6.9685   -2.5568  -21.9571 C   0  0  0  0  0  0  0  0  0  0  0  0
   -8.2804   -3.0064  -22.6395 C   0  0  2  0  0  0  0  0  0  0  0  0
   -8.0567   -3.6966  -23.9934 C   0  0  0  0  0  0  0  0  0  0  0  0
   -7.3689   -4.9475  -23.8042 N   0  0  0  0  0  0  0  0  0  0  0  0
   -7.0853   -5.8547  -24.7958 C   0  0  0  0  0  0  0  0  0  0  0  0
   -6.5965   -7.4713  -24.3498 S   0  0  0  0  0  0  0  0  0  0  0  0
   -6.4328   -7.8356  -26.0365 C   0  0  0  0  0  0  0  0  0  0  0  0
   -6.6965   -6.8648  -26.8468 N   0  0  0  0  0  0  0  0  0  0  0  0
   -7.0670   -5.7277  -26.1561 C   0  0  0  0  0  0  0  0  0  0  0  0
   -7.3777   -4.4890  -26.9410 C   0  0  0  0  0  0  0  0  0  0  0  0
   -7.2999   -4.7158  -28.0056 H   0  0  0  0  0  0  0  0  0  0  0  0
   -8.3888   -4.1220  -26.7350 H   0  0  0  0  0  0  0  0  0  0  0  0
   -6.6818   -3.6740  -26.7082 H   0  0  0  0  0  0  0  0  0  0  0  0
   -6.1095   -8.8201  -26.3493 H   0  0  0  0  0  0  0  0  0  0  0  0
   -6.9794   -5.1609  -22.9007 H   0  0  0  0  0  0  0  0  0  0  0  0
   -7.4722   -3.0299  -24.6462 H   0  0  0  0  0  0  0  0  0  0  0  0
   -9.0172   -3.8800  -24.4969 H   0  0  0  0  0  0  0  0  0  0  0  0
   -8.7520   -3.7398  -21.9812 H   0  0  0  0  0  0  0  0  0  0  0  0
   -6.5439   -3.3264  -21.3006 H   0  0  0  0  0  0  0  0  0  0  0  0
   -6.1959   -2.2974  -22.6982 H   0  0  0  0  0  0  0  0  0  0  0  0
  -10.6740   -1.9858  -22.4549 C   0  0  0  0  0  0  0  0  0  0  0  0
  -11.1974   -3.0421  -21.7030 C   0  0  0  0  0  0  0  0  0  0  0  0
  -12.5709   -3.1369  -21.5383 C   0  0  0  0  0  0  0  0  0  0  0  0
  -13.2522   -4.2440  -20.3958 Cl  0  0  0  0  0  0  0  0  0  0  0  0
  -13.4635   -2.3129  -22.2218 C   0  0  0  0  0  0  0  0  0  0  0  0
  -12.9508   -1.2241  -22.8894 C   0  0  0  0  0  0  0  0  0  0  0  0
  -11.5784   -1.0164  -22.9099 C   0  0  0  0  0  0  0  0  0  0  0  0
  -11.0921    0.2902  -23.4459 C   0  0  0  0  0  0  0  0  0  0  0  0
  -11.7642    1.3139  -23.4060 O   0  0  0  0  0  0  0  0  0  0  0  0
  -13.5906   -0.4809  -23.3530 H   0  0  0  0  0  0  0  0  0  0  0  0
  -14.5280   -2.5117  -22.1684 H   0  0  0  0  0  0  0  0  0  0  0  0
  -10.5413   -3.7596  -21.2222 H   0  0  0  0  0  0  0  0  0  0  0  0
   -8.0097   -0.6869  -24.1798 H   0  0  0  0  0  0  0  0  0  0  0  0
   -9.3743   -1.6095  -24.8394 H   0  0  0  0  0  0  0  0  0  0  0  0
   -8.9330    1.1879  -25.6366 H   0  0  0  0  0  0  0  0  0  0  0  0
  -10.1490    2.1299  -24.7297 H   0  0  0  0  0  0  0  0  0  0  0  0
   -9.4850    2.6582  -22.4045 H   0  0  0  0  0  0  0  0  0  0  0  0
   -7.9560    3.8897  -21.1360 H   0  0  0  0  0  0  0  0  0  0  0  0
   -6.7923    3.8144  -22.4747 H   0  0  0  0  0  0  0  0  0  0  0  0
   -6.9414    2.4236  -21.4011 H   0  0  0  0  0  0  0  0  0  0  0  0
  1  2  1  0
  2  3  1  0
  3  4  2  0
  3  5  1  0
  5  6  1  0
  6  7  1  0
  8  7  1  6
  8  9  1  0
  9 10  2  0
  9 11  1  0
 11 12  1  0
 12 13  2  0
 13 14  1  0
 14 15  2  0
 15 16  1  0
 16 17  2  0
 17 18  1  0
 18 19  2  0
 19 20  1  0
 20 21  2  0
 20 22  1  0
 19 23  1  0
 18 24  1  0
 17 25  1  0
 15 26  1  0
 13 27  1  0
 11 28  1  0
 28 29  1  0
 29 30  1  0
 30 31  1  0
 31 32  1  0
 32 33  1  0
 33 34  1  0
 34 35  2  0
 35 36  1  0
 36 37  1  0
 37 38  1  0
 37 39  1  0
 37 40  1  0
 34 41  1  0
 31 42  1  0
 30 43  1  0
 30 44  1  0
 29 45  1  1
 28 46  1  0
 28 47  1  0
  8 48  1  0
 48 49  2  0
 49 50  1  0
 50 51  1  0
 50 52  2  0
 52 53  1  0
 53 54  2  0
 54 55  1  0
 55 56  2  0
 53 57  1  0
 52 58  1  0
 49 59  1  0
  7 60  1  0
  7 61  1  0
  5 62  1  0
  5 63  1  0
  2 64  1  0
  1 65  1  0
  1 66  1  0
  1 67  1  0
 55  6  1  0
 29  8  1  0
 36 32  2  0
 54 48  1  0
 21 12  1  0
 21 16  1  0
M  END
>  <cnnaffinities>  (41) 
[6.95089]

>  <score>  (41) 
6.95089

>  <index>  (41) 
43

>  <Smiles>  (41) 
C(N(C(=O)C(N1C([C@@]2(C(=O)N(c3c(nc(c4c(c(c(c(c34)[H])[H])[H])[H])[H])[H])C([C@@]2(C(N(c2sc(nc2C([H])([H])[H])[H])[H])([H])[H])[H])([H])[H])c2c(c(Cl)c(c(c2C1=O)[H])[H])[H])([H])[H])([H])[H])[H])([H])([H])[H]

>  <h>  (41) 
<NA>

>  <Training>  (41) 
True

>  <Success>  (41) 
True

>  <enamine_searched>  (41) 
False

>  <enamine_id>  (41) 
nan

$$$$

     RDKit          3D

 60 64  0  0  0  0  0  0  0  0999 V2000
   -7.6110    3.1067  -21.9257 C   0  0  0  0  0  0  0  0  0  0  0  0
   -8.7467    2.6093  -22.6825 N   0  0  0  0  0  0  0  0  0  0  0  0
   -8.4504    1.8158  -23.7506 C   0  0  0  0  0  0  0  0  0  0  0  0
   -7.2952    1.5545  -24.0582 O   0  0  0  0  0  0  0  0  0  0  0  0
   -9.6191    1.2346  -24.5348 C   0  0  0  0  0  0  0  0  0  0  0  0
  -10.0721    0.0345  -23.8691 N   0  0  0  0  0  0  0  0  0  0  0  0
   -9.2261   -1.1497  -23.8933 C   0  0  0  0  0  0  0  0  0  0  0  0
   -9.3030   -1.9143  -22.5422 C   0  0  2  0  0  0  0  0  0  0  0  0
   -8.7045   -0.9898  -21.4436 C   0  0  0  0  0  0  0  0  0  0  0  0
   -9.2341   -0.0158  -20.9443 O   0  0  0  0  0  0  0  0  0  0  0  0
   -7.4194   -1.4172  -21.1717 N   0  0  0  0  0  0  0  0  0  0  0  0
   -6.6207   -0.8219  -20.1625 C   0  0  0  0  0  0  0  0  0  0  0  0
   -6.9235   -1.0400  -18.8411 C   0  0  0  0  0  0  0  0  0  0  0  0
   -6.2084   -0.5499  -17.8006 N   0  0  0  0  0  0  0  0  0  0  0  0
   -5.1693    0.1941  -18.0822 C   0  0  0  0  0  0  0  0  0  0  0  0
   -4.7436    0.5062  -19.4032 C   0  0  0  0  0  0  0  0  0  0  0  0
   -3.6239    1.3430  -19.6490 C   0  0  0  0  0  0  0  0  0  0  0  0
   -3.2602    1.6542  -20.9283 C   0  0  0  0  0  0  0  0  0  0  0  0
   -4.0011    1.1539  -22.0212 C   0  0  0  0  0  0  0  0  0  0  0  0
   -5.0924    0.3430  -21.8121 C   0  0  0  0  0  0  0  0  0  0  0  0
   -5.4878   -0.0130  -20.4927 C   0  0  0  0  0  0  0  0  0  0  0  0
   -5.6813    0.0206  -22.6663 H   0  0  0  0  0  0  0  0  0  0  0  0
   -3.7076    1.4170  -23.0328 H   0  0  0  0  0  0  0  0  0  0  0  0
   -2.4084    2.3020  -21.1086 H   0  0  0  0  0  0  0  0  0  0  0  0
   -3.0857    1.7445  -18.7934 H   0  0  0  0  0  0  0  0  0  0  0  0
   -4.5994    0.5994  -17.2436 H   0  0  0  0  0  0  0  0  0  0  0  0
   -7.7841   -1.6556  -18.5929 H   0  0  0  0  0  0  0  0  0  0  0  0
   -6.9961   -2.5570  -21.9680 C   0  0  0  0  0  0  0  0  0  0  0  0
   -8.3338   -3.1248  -22.4855 C   0  0  2  0  0  0  0  0  0  0  0  0
   -8.1916   -3.9164  -23.7850 C   0  0  0  0  0  0  0  0  0  0  0  0
   -7.4230   -5.0834  -23.5993 O   0  0  0  0  0  0  0  0  0  0  0  0
   -8.1820   -6.2457  -23.3986 C   0  0  0  0  0  0  0  0  0  0  0  0
   -8.7481   -6.5166  -24.3010 H   0  0  0  0  0  0  0  0  0  0  0  0
   -8.8864   -6.1358  -22.5626 H   0  0  0  0  0  0  0  0  0  0  0  0
   -7.4884   -7.0567  -23.1658 H   0  0  0  0  0  0  0  0  0  0  0  0
   -7.6625   -3.2979  -24.5244 H   0  0  0  0  0  0  0  0  0  0  0  0
   -9.1862   -4.1475  -24.2028 H   0  0  0  0  0  0  0  0  0  0  0  0
   -8.6870   -3.8016  -21.7004 H   0  0  0  0  0  0  0  0  0  0  0  0
   -6.3408   -2.2471  -22.7981 H   0  0  0  0  0  0  0  0  0  0  0  0
   -6.4467   -3.2801  -21.3569 H   0  0  0  0  0  0  0  0  0  0  0  0
  -10.7788   -2.2077  -22.3056 C   0  0  0  0  0  0  0  0  0  0  0  0
  -11.2471   -3.3186  -21.5988 C   0  0  0  0  0  0  0  0  0  0  0  0
  -12.5846   -3.3872  -21.2435 C   0  0  0  0  0  0  0  0  0  0  0  0
  -13.1180   -4.4699  -20.0084 Cl  0  0  0  0  0  0  0  0  0  0  0  0
  -13.5391   -2.5080  -21.7392 C   0  0  0  0  0  0  0  0  0  0  0  0
  -13.0952   -1.4423  -22.4808 C   0  0  0  0  0  0  0  0  0  0  0  0
  -11.7337   -1.2510  -22.6903 C   0  0  0  0  0  0  0  0  0  0  0  0
  -11.3124    0.0384  -23.3124 C   0  0  0  0  0  0  0  0  0  0  0  0
  -12.0293    1.0316  -23.3189 O   0  0  0  0  0  0  0  0  0  0  0  0
  -13.7980   -0.7191  -22.8705 H   0  0  0  0  0  0  0  0  0  0  0  0
  -14.5794   -2.6369  -21.4617 H   0  0  0  0  0  0  0  0  0  0  0  0
  -10.5735   -4.0920  -21.2457 H   0  0  0  0  0  0  0  0  0  0  0  0
   -8.1997   -0.8283  -24.1004 H   0  0  0  0  0  0  0  0  0  0  0  0
   -9.5458   -1.8132  -24.7075 H   0  0  0  0  0  0  0  0  0  0  0  0
  -10.4587    1.9290  -24.5903 H   0  0  0  0  0  0  0  0  0  0  0  0
   -9.2950    0.9844  -25.5511 H   0  0  0  0  0  0  0  0  0  0  0  0
   -9.6075    2.4822  -22.1568 H   0  0  0  0  0  0  0  0  0  0  0  0
   -7.9306    3.8753  -21.2210 H   0  0  0  0  0  0  0  0  0  0  0  0
   -6.9090    3.5782  -22.6174 H   0  0  0  0  0  0  0  0  0  0  0  0
   -7.0977    2.2901  -21.3891 H   0  0  0  0  0  0  0  0  0  0  0  0
  1  2  1  0
  2  3  1  0
  3  4  2  0
  3  5  1  0
  5  6  1  0
  6  7  1  0
  8  7  1  6
  8  9  1  0
  9 10  2  0
  9 11  1  0
 11 12  1  0
 12 13  2  0
 13 14  1  0
 14 15  2  0
 15 16  1  0
 16 17  2  0
 17 18  1  0
 18 19  2  0
 19 20  1  0
 20 21  2  0
 20 22  1  0
 19 23  1  0
 18 24  1  0
 17 25  1  0
 15 26  1  0
 13 27  1  0
 11 28  1  0
 28 29  1  0
 29 30  1  0
 30 31  1  0
 31 32  1  0
 32 33  1  0
 32 34  1  0
 32 35  1  0
 30 36  1  0
 30 37  1  0
 29 38  1  1
 28 39  1  0
 28 40  1  0
  8 41  1  0
 41 42  2  0
 42 43  1  0
 43 44  1  0
 43 45  2  0
 45 46  1  0
 46 47  2  0
 47 48  1  0
 48 49  2  0
 46 50  1  0
 45 51  1  0
 42 52  1  0
  7 53  1  0
  7 54  1  0
  5 55  1  0
  5 56  1  0
  2 57  1  0
  1 58  1  0
  1 59  1  0
  1 60  1  0
 48  6  1  0
 29  8  1  0
 47 41  1  0
 21 12  1  0
 21 16  1  0
M  END
>  <cnnaffinities>  (42) 
[6.5676]

>  <score>  (42) 
6.5676

>  <index>  (42) 
44

>  <Smiles>  (42) 
C(N(C(=O)C(N1C([C@@]2(C(=O)N(c3c(nc(c4c(c(c(c(c34)[H])[H])[H])[H])[H])[H])C([C@@]2(C(OC([H])([H])[H])([H])[H])[H])([H])[H])c2c(c(Cl)c(c(c2C1=O)[H])[H])[H])([H])[H])([H])[H])[H])([H])([H])[H]

>  <h>  (42) 
<NA>

>  <Training>  (42) 
True

>  <Success>  (42) 
True

>  <enamine_searched>  (42) 
False

>  <enamine_id>  (42) 
nan

$$$$

     RDKit          3D

 66 71  0  0  0  0  0  0  0  0999 V2000
   -7.6774    2.5379  -22.1781 C   0  0  0  0  0  0  0  0  0  0  0  0
   -8.5806    2.2764  -23.2794 N   0  0  0  0  0  0  0  0  0  0  0  0
   -8.1400    1.5260  -24.3129 C   0  0  0  0  0  0  0  0  0  0  0  0
   -6.9583    1.3302  -24.5801 O   0  0  0  0  0  0  0  0  0  0  0  0
   -9.2615    0.8538  -25.0941 C   0  0  0  0  0  0  0  0  0  0  0  0
   -9.9030   -0.1196  -24.2395 N   0  0  0  0  0  0  0  0  0  0  0  0
   -9.2535   -1.3965  -24.0907 C   0  0  0  0  0  0  0  0  0  0  0  0
   -9.4028   -1.9523  -22.6631 C   0  0  2  0  0  0  0  0  0  0  0  0
   -8.8207   -0.9657  -21.6148 C   0  0  0  0  0  0  0  0  0  0  0  0
   -9.3773    0.0087  -21.1438 O   0  0  0  0  0  0  0  0  0  0  0  0
   -7.5628   -1.3940  -21.2804 N   0  0  0  0  0  0  0  0  0  0  0  0
   -6.7964   -0.8052  -20.2498 C   0  0  0  0  0  0  0  0  0  0  0  0
   -7.1570   -0.9651  -18.9344 C   0  0  0  0  0  0  0  0  0  0  0  0
   -6.4197   -0.5191  -17.8923 N   0  0  0  0  0  0  0  0  0  0  0  0
   -5.3167    0.1330  -18.1633 C   0  0  0  0  0  0  0  0  0  0  0  0
   -4.8541    0.4077  -19.4834 C   0  0  0  0  0  0  0  0  0  0  0  0
   -3.6929    1.1880  -19.7289 C   0  0  0  0  0  0  0  0  0  0  0  0
   -3.3019    1.4610  -21.0099 C   0  0  0  0  0  0  0  0  0  0  0  0
   -4.0451    0.9674  -22.1025 C   0  0  0  0  0  0  0  0  0  0  0  0
   -5.1704    0.2047  -21.8925 C   0  0  0  0  0  0  0  0  0  0  0  0
   -5.6040   -0.0926  -20.5710 C   0  0  0  0  0  0  0  0  0  0  0  0
   -5.7518   -0.1212  -22.7495 H   0  0  0  0  0  0  0  0  0  0  0  0
   -3.7373    1.2046  -23.1168 H   0  0  0  0  0  0  0  0  0  0  0  0
   -2.4277    2.0788  -21.1932 H   0  0  0  0  0  0  0  0  0  0  0  0
   -3.1399    1.5773  -18.8773 H   0  0  0  0  0  0  0  0  0  0  0  0
   -4.7267    0.4853  -17.3159 H   0  0  0  0  0  0  0  0  0  0  0  0
   -8.0773   -1.4912  -18.6909 H   0  0  0  0  0  0  0  0  0  0  0  0
   -7.1558   -2.6036  -21.9633 C   0  0  0  0  0  0  0  0  0  0  0  0
   -8.4969   -3.1957  -22.4342 C   0  0  2  0  0  0  0  0  0  0  0  0
   -8.3532   -4.2772  -23.5384 C   0  0  0  0  0  0  0  0  0  0  0  0
   -7.2968   -4.0774  -24.6159 C   0  0  0  0  0  0  0  0  0  0  0  0
   -7.5988   -3.5544  -25.8778 C   0  0  0  0  0  0  0  0  0  0  0  0
   -6.6024   -3.3092  -26.8189 C   0  0  0  0  0  0  0  0  0  0  0  0
   -5.2799   -3.6357  -26.5420 C   0  0  0  0  0  0  0  0  0  0  0  0
   -4.9677   -4.2180  -25.3190 C   0  0  0  0  0  0  0  0  0  0  0  0
   -5.9650   -4.4398  -24.3731 C   0  0  0  0  0  0  0  0  0  0  0  0
   -5.6970   -4.8752  -23.4109 H   0  0  0  0  0  0  0  0  0  0  0  0
   -3.9414   -4.5014  -25.1019 H   0  0  0  0  0  0  0  0  0  0  0  0
   -4.5008   -3.4436  -27.2736 H   0  0  0  0  0  0  0  0  0  0  0  0
   -6.8651   -2.8614  -27.7730 H   0  0  0  0  0  0  0  0  0  0  0  0
   -8.6269   -3.3043  -26.1311 H   0  0  0  0  0  0  0  0  0  0  0  0
   -9.3372   -4.4316  -23.9986 H   0  0  0  0  0  0  0  0  0  0  0  0
   -8.1018   -5.2108  -23.0191 H   0  0  0  0  0  0  0  0  0  0  0  0
   -8.9249   -3.6877  -21.5521 H   0  0  0  0  0  0  0  0  0  0  0  0
   -6.6155   -3.2648  -21.2817 H   0  0  0  0  0  0  0  0  0  0  0  0
   -6.4859   -2.3630  -22.8018 H   0  0  0  0  0  0  0  0  0  0  0  0
  -10.8924   -2.0488  -22.4234 C   0  0  0  0  0  0  0  0  0  0  0  0
  -11.5294   -3.0732  -21.7198 C   0  0  0  0  0  0  0  0  0  0  0  0
  -12.8872   -2.9742  -21.4460 C   0  0  0  0  0  0  0  0  0  0  0  0
  -13.6606   -4.1974  -20.4748 Cl  0  0  0  0  0  0  0  0  0  0  0  0
  -13.6548   -1.8929  -21.8819 C   0  0  0  0  0  0  0  0  0  0  0  0
  -13.0242   -0.8724  -22.5723 C   0  0  0  0  0  0  0  0  0  0  0  0
  -11.6550   -0.9351  -22.8151 C   0  0  0  0  0  0  0  0  0  0  0  0
  -10.9987    0.2103  -23.5169 C   0  0  0  0  0  0  0  0  0  0  0  0
  -11.4126    1.3699  -23.4503 O   0  0  0  0  0  0  0  0  0  0  0  0
  -13.5818   -0.0129  -22.9313 H   0  0  0  0  0  0  0  0  0  0  0  0
  -14.7171   -1.8577  -21.6525 H   0  0  0  0  0  0  0  0  0  0  0  0
  -10.9749   -3.9334  -21.3565 H   0  0  0  0  0  0  0  0  0  0  0  0
   -8.2010   -1.2798  -24.3455 H   0  0  0  0  0  0  0  0  0  0  0  0
   -9.6996   -2.1160  -24.7822 H   0  0  0  0  0  0  0  0  0  0  0  0
   -8.8190    0.3262  -25.9377 H   0  0  0  0  0  0  0  0  0  0  0  0
  -10.0137    1.5643  -25.4433 H   0  0  0  0  0  0  0  0  0  0  0  0
   -9.5800    2.2192  -23.0803 H   0  0  0  0  0  0  0  0  0  0  0  0
   -7.8288    3.5457  -21.7896 H   0  0  0  0  0  0  0  0  0  0  0  0
   -6.6625    2.4564  -22.5777 H   0  0  0  0  0  0  0  0  0  0  0  0
   -7.8397    1.7907  -21.3893 H   0  0  0  0  0  0  0  0  0  0  0  0
  1  2  1  0
  2  3  1  0
  3  4  2  0
  3  5  1  0
  5  6  1  0
  6  7  1  0
  8  7  1  6
  8  9  1  0
  9 10  2  0
  9 11  1  0
 11 12  1  0
 12 13  2  0
 13 14  1  0
 14 15  2  0
 15 16  1  0
 16 17  2  0
 17 18  1  0
 18 19  2  0
 19 20  1  0
 20 21  2  0
 20 22  1  0
 19 23  1  0
 18 24  1  0
 17 25  1  0
 15 26  1  0
 13 27  1  0
 11 28  1  0
 28 29  1  0
 29 30  1  0
 30 31  1  0
 31 32  2  0
 32 33  1  0
 33 34  2  0
 34 35  1  0
 35 36  2  0
 36 37  1  0
 35 38  1  0
 34 39  1  0
 33 40  1  0
 32 41  1  0
 30 42  1  0
 30 43  1  0
 29 44  1  1
 28 45  1  0
 28 46  1  0
  8 47  1  0
 47 48  2  0
 48 49  1  0
 49 50  1  0
 49 51  2  0
 51 52  1  0
 52 53  2  0
 53 54  1  0
 54 55  2  0
 52 56  1  0
 51 57  1  0
 48 58  1  0
  7 59  1  0
  7 60  1  0
  5 61  1  0
  5 62  1  0
  2 63  1  0
  1 64  1  0
  1 65  1  0
  1 66  1  0
 54  6  1  0
 29  8  1  0
 36 31  1  0
 53 47  1  0
 21 12  1  0
 21 16  1  0
M  END
>  <cnnaffinities>  (43) 
[6.87358, 6.89633]

>  <score>  (43) 
6.87358

>  <index>  (43) 
45

>  <Smiles>  (43) 
C(N(C(=O)C(N1C([C@@]2(C(=O)N(c3c(nc(c4c(c(c(c(c34)[H])[H])[H])[H])[H])[H])C([C@@]2(C(c2c(c(c(c(c2[H])[H])[H])[H])[H])([H])[H])[H])([H])[H])c2c(c(Cl)c(c(c2C1=O)[H])[H])[H])([H])[H])([H])[H])[H])([H])([H])[H]

>  <h>  (43) 
<NA>

>  <Training>  (43) 
True

>  <Success>  (43) 
True

>  <enamine_searched>  (43) 
False

>  <enamine_id>  (43) 
nan

$$$$

     RDKit          3D

 50 54  0  0  0  0  0  0  0  0999 V2000
  -10.4330   -1.1595  -23.2588 C   0  0  0  0  0  0  0  0  0  0  0  0
   -8.9806   -1.4929  -22.9286 C   0  0  1  0  0  0  0  0  0  0  0  0
   -8.3571   -0.5323  -21.9083 C   0  0  0  0  0  0  0  0  0  0  0  0
   -7.3576   -1.3416  -21.2339 N   0  0  0  0  0  0  0  0  0  0  0  0
   -6.5630   -0.8464  -20.1833 C   0  0  0  0  0  0  0  0  0  0  0  0
   -6.8839   -1.0945  -18.8740 C   0  0  0  0  0  0  0  0  0  0  0  0
   -6.2095   -0.5691  -17.8227 N   0  0  0  0  0  0  0  0  0  0  0  0
   -5.1848    0.2024  -18.0861 C   0  0  0  0  0  0  0  0  0  0  0  0
   -4.7335    0.5074  -19.4027 C   0  0  0  0  0  0  0  0  0  0  0  0
   -3.6096    1.3349  -19.6428 C   0  0  0  0  0  0  0  0  0  0  0  0
   -3.2193    1.6176  -20.9210 C   0  0  0  0  0  0  0  0  0  0  0  0
   -3.9285    1.0893  -22.0223 C   0  0  0  0  0  0  0  0  0  0  0  0
   -5.0138    0.2726  -21.8193 C   0  0  0  0  0  0  0  0  0  0  0  0
   -5.4438   -0.0256  -20.4977 C   0  0  0  0  0  0  0  0  0  0  0  0
   -5.5495   -0.1507  -22.6651 H   0  0  0  0  0  0  0  0  0  0  0  0
   -3.6182    1.3390  -23.0324 H   0  0  0  0  0  0  0  0  0  0  0  0
   -2.3670    2.2643  -21.0972 H   0  0  0  0  0  0  0  0  0  0  0  0
   -3.0944    1.7532  -18.7829 H   0  0  0  0  0  0  0  0  0  0  0  0
   -4.6473    0.6362  -17.2395 H   0  0  0  0  0  0  0  0  0  0  0  0
   -7.7240   -1.7382  -18.6230 H   0  0  0  0  0  0  0  0  0  0  0  0
   -7.5505   -2.6921  -21.3794 C   0  0  0  0  0  0  0  0  0  0  0  0
   -6.8601   -3.5473  -20.8540 O   0  0  0  0  0  0  0  0  0  0  0  0
   -8.7581   -2.9069  -22.2901 C   0  0  1  0  0  0  0  0  0  0  0  0
   -9.9501   -3.2979  -21.3994 C   0  0  0  0  0  0  0  0  0  0  0  0
  -11.0851   -3.7339  -22.1834 N   0  0  0  0  0  0  0  0  0  0  0  0
  -12.4533   -3.5553  -21.7414 C   0  0  0  0  0  0  0  0  0  0  0  0
  -13.3388   -2.7625  -22.6284 C   0  0  0  0  0  0  0  0  0  0  0  0
  -14.1337   -2.2024  -23.2551 N   0  0  0  0  0  0  0  0  0  0  0  0
  -12.4871   -3.1007  -20.7501 H   0  0  0  0  0  0  0  0  0  0  0  0
  -12.9134   -4.5421  -21.7151 H   0  0  0  0  0  0  0  0  0  0  0  0
  -10.9077   -4.6598  -23.1739 C   0  0  0  0  0  0  0  0  0  0  0  0
  -11.8567   -5.2828  -23.6108 O   0  0  0  0  0  0  0  0  0  0  0  0
   -9.5352   -4.8302  -23.7226 C   0  0  0  0  0  0  0  0  0  0  0  0
   -9.3216   -5.7855  -24.7149 C   0  0  0  0  0  0  0  0  0  0  0  0
   -8.0844   -5.9086  -25.3112 C   0  0  0  0  0  0  0  0  0  0  0  0
   -7.0749   -5.0567  -24.8883 C   0  0  0  0  0  0  0  0  0  0  0  0
   -5.8820   -5.1452  -25.4871 F   0  0  0  0  0  0  0  0  0  0  0  0
   -7.2519   -4.1139  -23.9011 C   0  0  0  0  0  0  0  0  0  0  0  0
   -8.5055   -3.9903  -23.3039 C   0  0  0  0  0  0  0  0  0  0  0  0
   -6.4268   -3.4827  -23.5952 H   0  0  0  0  0  0  0  0  0  0  0  0
   -7.8821   -6.6311  -26.0912 H   0  0  0  0  0  0  0  0  0  0  0  0
  -10.1522   -6.4164  -25.0029 H   0  0  0  0  0  0  0  0  0  0  0  0
   -9.6276   -4.0820  -20.7175 H   0  0  0  0  0  0  0  0  0  0  0  0
  -10.2317   -2.4271  -20.8041 H   0  0  0  0  0  0  0  0  0  0  0  0
   -9.1136   -0.1798  -21.1929 H   0  0  0  0  0  0  0  0  0  0  0  0
   -7.9028    0.3435  -22.3774 H   0  0  0  0  0  0  0  0  0  0  0  0
   -8.3850   -1.4694  -23.8517 H   0  0  0  0  0  0  0  0  0  0  0  0
  -10.5225   -0.1829  -23.7342 H   0  0  0  0  0  0  0  0  0  0  0  0
  -11.0316   -1.1464  -22.3436 H   0  0  0  0  0  0  0  0  0  0  0  0
  -10.8647   -1.9215  -23.9137 H   0  0  0  0  0  0  0  0  0  0  0  0
  1  2  1  0
  2  3  1  0
  3  4  1  0
  4  5  1  0
  5  6  2  0
  6  7  1  0
  7  8  2  0
  8  9  1  0
  9 10  2  0
 10 11  1  0
 11 12  2  0
 12 13  1  0
 13 14  2  0
 13 15  1  0
 12 16  1  0
 11 17  1  0
 10 18  1  0
  8 19  1  0
  6 20  1  0
  4 21  1  0
 21 22  2  0
 21 23  1  0
 23 24  1  1
 24 25  1  0
 25 26  1  0
 26 27  1  0
 27 28  3  0
 26 29  1  0
 26 30  1  0
 25 31  1  0
 31 32  2  0
 31 33  1  0
 33 34  2  0
 34 35  1  0
 35 36  2  0
 36 37  1  0
 36 38  1  0
 38 39  2  0
 38 40  1  0
 35 41  1  0
 34 42  1  0
 24 43  1  0
 24 44  1  0
  3 45  1  0
  3 46  1  0
  2 47  1  6
  1 48  1  0
  1 49  1  0
  1 50  1  0
 23  2  1  0
 39 33  1  0
 14  5  1  0
 39 23  1  0
 14  9  1  0
M  END
>  <cnnaffinities>  (44) 
[6.44848, 6.20357, 5.98079]

>  <score>  (44) 
6.44848

>  <index>  (44) 
46

>  <Smiles>  (44) 
C([C@]1(C(N(c2c(nc(c3c(c(c(c(c23)[H])[H])[H])[H])[H])[H])C(=O)[C@]21C(N(C(C#N)([H])[H])C(=O)c1c(c(c(F)c(c21)[H])[H])[H])([H])[H])([H])[H])[H])([H])([H])[H]

>  <h>  (44) 
<NA>

>  <Training>  (44) 
True

>  <Success>  (44) 
True

>  <enamine_searched>  (44) 
False

>  <enamine_id>  (44) 
nan

$$$$

     RDKit          3D

 58 63  0  0  0  0  0  0  0  0999 V2000
   -8.8634    0.5352  -21.0441 O   0  0  0  0  0  0  0  0  0  0  0  0
   -8.2331   -0.1861  -21.7975 C   0  0  0  0  0  0  0  0  0  0  0  0
   -7.4296   -1.3561  -21.2414 C   0  0  0  0  0  0  0  0  0  0  0  0
   -6.5401   -0.8491  -20.1498 C   0  0  0  0  0  0  0  0  0  0  0  0
   -6.8526   -1.0635  -18.8352 C   0  0  0  0  0  0  0  0  0  0  0  0
   -6.1689   -0.5528  -17.7818 N   0  0  0  0  0  0  0  0  0  0  0  0
   -5.1406    0.2085  -18.0587 C   0  0  0  0  0  0  0  0  0  0  0  0
   -4.7073    0.5234  -19.3768 C   0  0  0  0  0  0  0  0  0  0  0  0
   -3.5933    1.3614  -19.6234 C   0  0  0  0  0  0  0  0  0  0  0  0
   -3.2171    1.6694  -20.9014 C   0  0  0  0  0  0  0  0  0  0  0  0
   -3.9508    1.1593  -21.9942 C   0  0  0  0  0  0  0  0  0  0  0  0
   -5.0381    0.3484  -21.7853 C   0  0  0  0  0  0  0  0  0  0  0  0
   -5.4367   -0.0066  -20.4644 C   0  0  0  0  0  0  0  0  0  0  0  0
   -5.6030   -0.0137  -22.6414 H   0  0  0  0  0  0  0  0  0  0  0  0
   -3.6529    1.4237  -23.0067 H   0  0  0  0  0  0  0  0  0  0  0  0
   -2.3682    2.3213  -21.0803 H   0  0  0  0  0  0  0  0  0  0  0  0
   -3.0611    1.7674  -18.7682 H   0  0  0  0  0  0  0  0  0  0  0  0
   -4.5942    0.6268  -17.2123 H   0  0  0  0  0  0  0  0  0  0  0  0
   -7.7164   -1.6786  -18.5782 H   0  0  0  0  0  0  0  0  0  0  0  0
   -6.8457   -1.8364  -22.0259 H   0  0  0  0  0  0  0  0  0  0  0  0
   -8.1349   -2.0947  -20.8488 H   0  0  0  0  0  0  0  0  0  0  0  0
   -8.1615    0.0393  -23.1640 N   0  0  0  0  0  0  0  0  0  0  0  0
   -8.0098   -1.0530  -24.1142 C   0  0  0  0  0  0  0  0  0  0  0  0
   -9.0283   -2.1352  -23.8521 C   0  0  0  0  0  0  0  0  0  0  0  0
  -10.3759   -1.7969  -23.7312 C   0  0  0  0  0  0  0  0  0  0  0  0
  -11.3427   -2.7770  -23.5576 C   0  0  0  0  0  0  0  0  0  0  0  0
  -10.9533   -4.1141  -23.5000 C   0  0  0  0  0  0  0  0  0  0  0  0
   -9.6028   -4.4325  -23.5412 C   0  0  0  0  0  0  0  0  0  0  0  0
   -9.0873   -6.0895  -23.4054 Cl  0  0  0  0  0  0  0  0  0  0  0  0
   -8.6330   -3.4604  -23.7356 C   0  0  0  0  0  0  0  0  0  0  0  0
   -7.5943   -3.7731  -23.8461 H   0  0  0  0  0  0  0  0  0  0  0  0
  -11.7001   -4.8957  -23.4623 H   0  0  0  0  0  0  0  0  0  0  0  0
  -12.3882   -2.4912  -23.4724 H   0  0  0  0  0  0  0  0  0  0  0  0
  -10.6647   -0.7522  -23.7600 H   0  0  0  0  0  0  0  0  0  0  0  0
   -6.9909   -1.4742  -24.0738 H   0  0  0  0  0  0  0  0  0  0  0  0
   -8.1632   -0.6279  -25.1069 H   0  0  0  0  0  0  0  0  0  0  0  0
   -8.4314    1.3850  -23.5897 C   0  0  2  0  0  0  0  0  0  0  0  0
   -7.3991    2.4416  -23.1426 C   0  0  0  0  0  0  0  0  0  0  0  0
   -8.0566    3.6745  -23.7167 N   0  0  1  0  0  4  0  0  0  0  0  0
   -7.2025    4.4873  -24.5911 C   0  0  0  0  0  0  0  0  0  0  0  0
   -7.5629    5.9256  -24.7667 C   0  0  0  0  0  0  0  0  0  0  0  0
   -6.3523    5.5311  -23.9428 C   0  0  0  0  0  0  0  0  0  0  0  0
   -6.4289    5.5897  -22.8560 H   0  0  0  0  0  0  0  0  0  0  0  0
   -5.3587    5.7205  -24.3436 H   0  0  0  0  0  0  0  0  0  0  0  0
   -7.4077    6.3842  -25.7401 H   0  0  0  0  0  0  0  0  0  0  0  0
   -8.4526    6.2676  -24.2367 H   0  0  0  0  0  0  0  0  0  0  0  0
   -6.7951    3.9485  -25.4391 H   0  0  0  0  0  0  0  0  0  0  0  0
   -9.2727    3.0427  -24.3730 C   0  0  2  0  0  0  0  0  0  0  0  0
   -9.7530    2.1266  -23.2474 C   0  0  0  0  0  0  0  0  0  0  0  0
  -10.6552    1.5573  -23.4811 H   0  0  0  0  0  0  0  0  0  0  0  0
   -9.7969    2.5709  -22.2504 H   0  0  0  0  0  0  0  0  0  0  0  0
   -8.6852    1.7972  -25.0571 C   0  0  0  0  0  0  0  0  0  0  0  0
   -9.4564    1.1998  -25.5491 H   0  0  0  0  0  0  0  0  0  0  0  0
   -7.8119    1.9360  -25.7075 H   0  0  0  0  0  0  0  0  0  0  0  0
   -9.9072    3.7602  -24.8753 H   0  0  0  0  0  0  0  0  0  0  0  0
   -8.3833    4.2798  -22.9364 H   0  0  0  0  0  0  0  0  0  0  0  0
   -7.3231    2.5092  -22.0542 H   0  0  0  0  0  0  0  0  0  0  0  0
   -6.4100    2.3164  -23.5852 H   0  0  0  0  0  0  0  0  0  0  0  0
  1  2  2  0
  2  3  1  0
  3  4  1  0
  4  5  2  0
  5  6  1  0
  6  7  2  0
  7  8  1  0
  8  9  2  0
  9 10  1  0
 10 11  2  0
 11 12  1  0
 12 13  2  0
 12 14  1  0
 11 15  1  0
 10 16  1  0
  9 17  1  0
  7 18  1  0
  5 19  1  0
  3 20  1  0
  3 21  1  0
  2 22  1  0
 22 23  1  0
 23 24  1  0
 24 25  2  0
 25 26  1  0
 26 27  2  0
 27 28  1  0
 28 29  1  0
 28 30  2  0
 30 31  1  0
 27 32  1  0
 26 33  1  0
 25 34  1  0
 23 35  1  0
 23 36  1  0
 37 22  1  6
 37 38  1  0
 38 39  1  0
 39 40  1  0
 40 41  1  0
 41 42  1  0
 42 43  1  0
 42 44  1  0
 41 45  1  0
 41 46  1  0
 40 47  1  0
 39 48  1  0
 48 49  1  0
 49 50  1  0
 49 51  1  0
 48 52  1  0
 52 53  1  0
 52 54  1  0
 48 55  1  6
 39 56  1  1
 38 57  1  0
 38 58  1  0
 13  4  1  0
 30 24  1  0
 49 37  1  0
 13  8  1  0
 52 37  1  0
 42 40  1  0
M  CHG  1  39   1
M  END
>  <cnnaffinities>  (45) 
[5.93119, 6.23733, 5.7555, 5.80459]

>  <score>  (45) 
5.93119

>  <index>  (45) 
47

>  <Smiles>  (45) 
O=C(C(c1c(nc(c2c(c(c(c(c12)[H])[H])[H])[H])[H])[H])([H])[H])N(C(c1c(c(c(c(Cl)c1[H])[H])[H])[H])([H])[H])[C@]12C([N@@+](C3(C(C3([H])[H])([H])[H])[H])([C@](C1([H])[H])(C2([H])[H])[H])[H])([H])[H]

>  <h>  (45) 
<NA>

>  <Training>  (45) 
True

>  <Success>  (45) 
True

>  <enamine_searched>  (45) 
False

>  <enamine_id>  (45) 
nan

$$$$

     RDKit          3D

 46 48  0  0  0  0  0  0  0  0999 V2000
   -9.8015   -5.8611  -26.7293 C   0  0  0  0  0  0  0  0  0  0  0  0
   -9.4875   -6.4206  -25.3409 C   0  0  0  0  0  0  0  0  0  0  0  0
   -8.9229   -7.8348  -25.4779 C   0  0  0  0  0  0  0  0  0  0  0  0
   -9.5180   -8.4308  -26.1795 H   0  0  0  0  0  0  0  0  0  0  0  0
   -7.8988   -7.8196  -25.8684 H   0  0  0  0  0  0  0  0  0  0  0  0
   -8.9127   -8.3691  -24.5246 H   0  0  0  0  0  0  0  0  0  0  0  0
   -8.5611   -5.4736  -24.5419 C   0  0  0  0  0  0  0  0  0  0  0  0
   -8.0885   -6.0274  -23.1998 C   0  0  0  0  0  0  0  0  0  0  0  0
   -7.1047   -5.0823  -22.5110 C   0  0  0  0  0  0  0  0  0  0  0  0
   -7.5892   -3.6992  -22.4478 N   0  0  0  0  0  0  0  0  0  0  0  0
   -6.7883   -2.7821  -21.8070 C   0  0  0  0  0  0  0  0  0  0  0  0
   -5.5990   -2.9994  -21.6399 O   0  0  0  0  0  0  0  0  0  0  0  0
   -7.4232   -1.4793  -21.2585 C   0  0  0  0  0  0  0  0  0  0  0  0
   -6.5807   -0.8281  -20.1822 C   0  0  0  0  0  0  0  0  0  0  0  0
   -6.8725   -1.0429  -18.8609 C   0  0  0  0  0  0  0  0  0  0  0  0
   -6.1828   -0.5415  -17.8033 N   0  0  0  0  0  0  0  0  0  0  0  0
   -5.1548    0.2238  -18.0674 C   0  0  0  0  0  0  0  0  0  0  0  0
   -4.7183    0.5311  -19.3831 C   0  0  0  0  0  0  0  0  0  0  0  0
   -3.5882    1.3551  -19.6222 C   0  0  0  0  0  0  0  0  0  0  0  0
   -3.1878    1.6331  -20.8998 C   0  0  0  0  0  0  0  0  0  0  0  0
   -3.9026    1.0932  -21.9918 C   0  0  0  0  0  0  0  0  0  0  0  0
   -4.9974    0.2894  -21.7860 C   0  0  0  0  0  0  0  0  0  0  0  0
   -5.4440   -0.0118  -20.4743 C   0  0  0  0  0  0  0  0  0  0  0  0
   -5.5203   -0.1364  -22.6362 H   0  0  0  0  0  0  0  0  0  0  0  0
   -3.5766    1.3163  -23.0031 H   0  0  0  0  0  0  0  0  0  0  0  0
   -2.3280    2.2732  -21.0839 H   0  0  0  0  0  0  0  0  0  0  0  0
   -3.0554    1.7755  -18.7712 H   0  0  0  0  0  0  0  0  0  0  0  0
   -4.6008    0.6285  -17.2169 H   0  0  0  0  0  0  0  0  0  0  0  0
   -7.7194   -1.6691  -18.5839 H   0  0  0  0  0  0  0  0  0  0  0  0
   -7.5846   -0.7748  -22.0856 H   0  0  0  0  0  0  0  0  0  0  0  0
   -8.4177   -1.7020  -20.8436 H   0  0  0  0  0  0  0  0  0  0  0  0
   -8.9322   -3.4498  -22.9501 C   0  0  0  0  0  0  0  0  0  0  0  0
   -9.1899   -4.0802  -24.3275 C   0  0  0  0  0  0  0  0  0  0  0  0
  -10.2759   -4.1295  -24.4568 H   0  0  0  0  0  0  0  0  0  0  0  0
   -8.8335   -3.4003  -25.1073 H   0  0  0  0  0  0  0  0  0  0  0  0
   -9.6811   -3.8218  -22.2383 H   0  0  0  0  0  0  0  0  0  0  0  0
   -9.0849   -2.3720  -23.0274 H   0  0  0  0  0  0  0  0  0  0  0  0
   -6.1430   -5.1047  -23.0345 H   0  0  0  0  0  0  0  0  0  0  0  0
   -6.8992   -5.4476  -21.4974 H   0  0  0  0  0  0  0  0  0  0  0  0
   -7.5889   -6.9914  -23.3349 H   0  0  0  0  0  0  0  0  0  0  0  0
   -8.9462   -6.2340  -22.5523 H   0  0  0  0  0  0  0  0  0  0  0  0
   -7.6550   -5.3386  -25.1483 H   0  0  0  0  0  0  0  0  0  0  0  0
  -10.4357   -6.4946  -24.7975 H   0  0  0  0  0  0  0  0  0  0  0  0
  -10.2944   -4.8857  -26.6903 H   0  0  0  0  0  0  0  0  0  0  0  0
   -8.8834   -5.7480  -27.3167 H   0  0  0  0  0  0  0  0  0  0  0  0
  -10.4585   -6.5388  -27.2862 H   0  0  0  0  0  0  0  0  0  0  0  0
  1  2  1  0
  2  3  1  0
  3  4  1  0
  3  5  1  0
  3  6  1  0
  2  7  1  0
  7  8  1  0
  8  9  1  0
  9 10  1  0
 10 11  1  0
 11 12  2  0
 11 13  1  0
 13 14  1  0
 14 15  2  0
 15 16  1  0
 16 17  2  0
 17 18  1  0
 18 19  2  0
 19 20  1  0
 20 21  2  0
 21 22  1  0
 22 23  2  0
 22 24  1  0
 21 25  1  0
 20 26  1  0
 19 27  1  0
 17 28  1  0
 15 29  1  0
 13 30  1  0
 13 31  1  0
 10 32  1  0
 32 33  1  0
 33 34  1  0
 33 35  1  0
 32 36  1  0
 32 37  1  0
  9 38  1  0
  9 39  1  0
  8 40  1  0
  8 41  1  0
  7 42  1  0
  2 43  1  0
  1 44  1  0
  1 45  1  0
  1 46  1  0
 33  7  1  0
 23 14  1  0
 23 18  1  0
M  END
>  <cnnaffinities>  (46) 
[5.28798, 5.2878, 5.28785, 5.2948]

>  <score>  (46) 
5.28798

>  <index>  (46) 
48

>  <Smiles>  (46) 
C(C(C([H])([H])[H])(C1(C(C(N(C(=O)C(c2c(nc(c3c(c(c(c(c23)[H])[H])[H])[H])[H])[H])([H])[H])C(C1([H])[H])([H])[H])([H])[H])([H])[H])[H])[H])([H])([H])[H]

>  <h>  (46) 
<NA>

>  <Training>  (46) 
True

>  <Success>  (46) 
True

>  <enamine_searched>  (46) 
False

>  <enamine_id>  (46) 
nan

$$$$

     RDKit          3D

 67 72  0  0  0  0  0  0  0  0999 V2000
   -7.5053    3.2352  -21.9161 C   0  0  0  0  0  0  0  0  0  0  0  0
   -8.5811    2.7396  -22.7573 N   0  0  0  0  0  0  0  0  0  0  0  0
   -8.2161    1.9823  -23.8266 C   0  0  0  0  0  0  0  0  0  0  0  0
   -7.0424    1.7519  -24.0824 O   0  0  0  0  0  0  0  0  0  0  0  0
   -9.3461    1.3846  -24.6643 C   0  0  0  0  0  0  0  0  0  0  0  0
   -9.8642    0.2151  -23.9913 N   0  0  0  0  0  0  0  0  0  0  0  0
   -9.0660   -0.9986  -23.9693 C   0  0  0  0  0  0  0  0  0  0  0  0
   -9.2239   -1.7529  -22.6171 C   0  0  2  0  0  0  0  0  0  0  0  0
   -8.6302   -0.8923  -21.4829 C   0  0  0  0  0  0  0  0  0  0  0  0
   -9.1423    0.0702  -20.9435 O   0  0  0  0  0  0  0  0  0  0  0  0
   -7.3855   -1.3883  -21.1785 N   0  0  0  0  0  0  0  0  0  0  0  0
   -6.6001   -0.8090  -20.1623 C   0  0  0  0  0  0  0  0  0  0  0  0
   -6.9210   -1.0318  -18.8482 C   0  0  0  0  0  0  0  0  0  0  0  0
   -6.2094   -0.5488  -17.8058 N   0  0  0  0  0  0  0  0  0  0  0  0
   -5.1661    0.1949  -18.0808 C   0  0  0  0  0  0  0  0  0  0  0  0
   -4.7334    0.5098  -19.3993 C   0  0  0  0  0  0  0  0  0  0  0  0
   -3.6115    1.3429  -19.6429 C   0  0  0  0  0  0  0  0  0  0  0  0
   -3.2423    1.6533  -20.9225 C   0  0  0  0  0  0  0  0  0  0  0  0
   -3.9788    1.1526  -22.0187 C   0  0  0  0  0  0  0  0  0  0  0  0
   -5.0723    0.3441  -21.8125 C   0  0  0  0  0  0  0  0  0  0  0  0
   -5.4706   -0.0025  -20.4910 C   0  0  0  0  0  0  0  0  0  0  0  0
   -5.6577    0.0094  -22.6650 H   0  0  0  0  0  0  0  0  0  0  0  0
   -3.6840    1.4162  -23.0305 H   0  0  0  0  0  0  0  0  0  0  0  0
   -2.3898    2.3019  -21.1008 H   0  0  0  0  0  0  0  0  0  0  0  0
   -3.0775    1.7438  -18.7864 H   0  0  0  0  0  0  0  0  0  0  0  0
   -4.6021    0.5948  -17.2377 H   0  0  0  0  0  0  0  0  0  0  0  0
   -7.7896   -1.6401  -18.6036 H   0  0  0  0  0  0  0  0  0  0  0  0
   -7.0016   -2.5610  -21.9335 C   0  0  0  0  0  0  0  0  0  0  0  0
   -8.3333   -3.0127  -22.5537 C   0  0  2  0  0  0  0  0  0  0  0  0
   -8.1815   -3.7400  -23.8787 C   0  0  0  0  0  0  0  0  0  0  0  0
   -7.5519   -5.0170  -23.6864 N   0  0  0  0  0  0  0  0  0  0  0  0
   -7.1217   -5.6954  -24.7996 C   0  0  0  0  0  0  0  0  0  0  0  0
   -7.4028   -5.4644  -26.1114 C   0  0  0  0  0  0  0  0  0  0  0  0
   -6.8286   -6.3286  -27.0229 N   0  0  0  0  0  0  0  0  0  0  0  0
   -6.1386   -7.2283  -26.4074 C   0  0  0  0  0  0  0  0  0  0  0  0
   -5.4556   -8.4132  -26.9819 C   0  0  0  0  0  0  0  0  0  0  0  0
   -5.7651   -8.6036  -28.0144 H   0  0  0  0  0  0  0  0  0  0  0  0
   -4.3691   -8.2954  -26.9036 H   0  0  0  0  0  0  0  0  0  0  0  0
   -5.7590   -9.2197  -26.3212 H   0  0  0  0  0  0  0  0  0  0  0  0
   -6.0353   -7.0448  -24.6629 S   0  0  0  0  0  0  0  0  0  0  0  0
   -8.0675   -4.6909  -26.4784 H   0  0  0  0  0  0  0  0  0  0  0  0
   -7.1470   -5.2557  -22.7944 H   0  0  0  0  0  0  0  0  0  0  0  0
   -7.5831   -3.1274  -24.5738 H   0  0  0  0  0  0  0  0  0  0  0  0
   -9.1670   -3.8701  -24.3502 H   0  0  0  0  0  0  0  0  0  0  0  0
   -8.7782   -3.7113  -21.8415 H   0  0  0  0  0  0  0  0  0  0  0  0
   -6.5727   -3.3184  -21.2699 H   0  0  0  0  0  0  0  0  0  0  0  0
   -6.2514   -2.3195  -22.7021 H   0  0  0  0  0  0  0  0  0  0  0  0
  -10.7078   -1.9757  -22.4017 C   0  0  0  0  0  0  0  0  0  0  0  0
  -11.2313   -3.0657  -21.7022 C   0  0  0  0  0  0  0  0  0  0  0  0
  -12.5923   -3.1316  -21.4687 C   0  0  0  0  0  0  0  0  0  0  0  0
  -13.2132   -4.2733  -20.3276 Cl  0  0  0  0  0  0  0  0  0  0  0  0
  -13.4864   -2.2296  -22.0339 C   0  0  0  0  0  0  0  0  0  0  0  0
  -12.9771   -1.1465  -22.7158 C   0  0  0  0  0  0  0  0  0  0  0  0
  -11.5990   -0.9804  -22.8203 C   0  0  0  0  0  0  0  0  0  0  0  0
  -11.0647    0.3113  -23.3541 C   0  0  0  0  0  0  0  0  0  0  0  0
  -11.6604    1.3763  -23.2388 O   0  0  0  0  0  0  0  0  0  0  0  0
  -13.6388   -0.4150  -23.1639 H   0  0  0  0  0  0  0  0  0  0  0  0
  -14.5499   -2.3792  -21.8946 H   0  0  0  0  0  0  0  0  0  0  0  0
  -10.5980   -3.8517  -21.3119 H   0  0  0  0  0  0  0  0  0  0  0  0
   -9.3880   -1.6519  -24.7900 H   0  0  0  0  0  0  0  0  0  0  0  0
   -8.0134   -0.7394  -24.1386 H   0  0  0  0  0  0  0  0  0  0  0  0
  -10.1721    2.0862  -24.7904 H   0  0  0  0  0  0  0  0  0  0  0  0
   -8.9580    1.1170  -25.6538 H   0  0  0  0  0  0  0  0  0  0  0  0
   -9.5016    2.6449  -22.3448 H   0  0  0  0  0  0  0  0  0  0  0  0
   -7.8928    3.9326  -21.1698 H   0  0  0  0  0  0  0  0  0  0  0  0
   -6.9805    2.3897  -21.4446 H   0  0  0  0  0  0  0  0  0  0  0  0
   -6.7929    3.7788  -22.5415 H   0  0  0  0  0  0  0  0  0  0  0  0
  1  2  1  0
  2  3  1  0
  3  4  2  0
  3  5  1  0
  5  6  1  0
  6  7  1  0
  8  7  1  6
  8  9  1  0
  9 10  2  0
  9 11  1  0
 11 12  1  0
 12 13  2  0
 13 14  1  0
 14 15  2  0
 15 16  1  0
 16 17  2  0
 17 18  1  0
 18 19  2  0
 19 20  1  0
 20 21  2  0
 20 22  1  0
 19 23  1  0
 18 24  1  0
 17 25  1  0
 15 26  1  0
 13 27  1  0
 11 28  1  0
 28 29  1  0
 29 30  1  0
 30 31  1  0
 31 32  1  0
 32 33  2  0
 33 34  1  0
 34 35  2  0
 35 36  1  0
 36 37  1  0
 36 38  1  0
 36 39  1  0
 35 40  1  0
 33 41  1  0
 31 42  1  0
 30 43  1  0
 30 44  1  0
 29 45  1  1
 28 46  1  0
 28 47  1  0
  8 48  1  0
 48 49  2  0
 49 50  1  0
 50 51  1  0
 50 52  2  0
 52 53  1  0
 53 54  2  0
 54 55  1  0
 55 56  2  0
 53 57  1  0
 52 58  1  0
 49 59  1  0
  7 60  1  0
  7 61  1  0
  5 62  1  0
  5 63  1  0
  2 64  1  0
  1 65  1  0
  1 66  1  0
  1 67  1  0
 55  6  1  0
 29  8  1  0
 40 32  1  0
 54 48  1  0
 21 12  1  0
 21 16  1  0
M  END
>  <cnnaffinities>  (47) 
[6.94723]

>  <score>  (47) 
6.94723

>  <index>  (47) 
49

>  <Smiles>  (47) 
C(N(C(=O)C(N1C([C@@]2(C(=O)N(c3c(nc(c4c(c(c(c(c34)[H])[H])[H])[H])[H])[H])C([C@@]2(C(N(c2c(nc(C([H])([H])[H])s2)[H])[H])([H])[H])[H])([H])[H])c2c(c(Cl)c(c(c2C1=O)[H])[H])[H])([H])[H])([H])[H])[H])([H])([H])[H]

>  <h>  (47) 
<NA>

>  <Training>  (47) 
True

>  <Success>  (47) 
True

>  <enamine_searched>  (47) 
False

>  <enamine_id>  (47) 
nan

$$$$

     RDKit          3D

 66 70  0  0  0  0  0  0  0  0999 V2000
   -7.6027    3.0663  -21.9713 C   0  0  0  0  0  0  0  0  0  0  0  0
   -8.7357    2.5390  -22.7124 N   0  0  0  0  0  0  0  0  0  0  0  0
   -8.4687    1.7387  -23.7828 C   0  0  0  0  0  0  0  0  0  0  0  0
   -7.3264    1.4774  -24.1263 O   0  0  0  0  0  0  0  0  0  0  0  0
   -9.6691    1.1582  -24.5252 C   0  0  0  0  0  0  0  0  0  0  0  0
  -10.1214   -0.0367  -23.8484 N   0  0  0  0  0  0  0  0  0  0  0  0
   -9.2679   -1.2146  -23.8803 C   0  0  0  0  0  0  0  0  0  0  0  0
   -9.3187   -1.9592  -22.5191 C   0  0  2  0  0  0  0  0  0  0  0  0
   -8.7097   -1.0123  -21.4436 C   0  0  0  0  0  0  0  0  0  0  0  0
   -9.2375   -0.0333  -20.9488 O   0  0  0  0  0  0  0  0  0  0  0  0
   -7.4187   -1.4227  -21.1773 N   0  0  0  0  0  0  0  0  0  0  0  0
   -6.6274   -0.8207  -20.1674 C   0  0  0  0  0  0  0  0  0  0  0  0
   -6.9304   -1.0394  -18.8449 C   0  0  0  0  0  0  0  0  0  0  0  0
   -6.2118   -0.5528  -17.8071 N   0  0  0  0  0  0  0  0  0  0  0  0
   -5.1700    0.1876  -18.0877 C   0  0  0  0  0  0  0  0  0  0  0  0
   -4.7428    0.4996  -19.4077 C   0  0  0  0  0  0  0  0  0  0  0  0
   -3.6224    1.3359  -19.6516 C   0  0  0  0  0  0  0  0  0  0  0  0
   -3.2578    1.6502  -20.9304 C   0  0  0  0  0  0  0  0  0  0  0  0
   -4.0044    1.1550  -22.0231 C   0  0  0  0  0  0  0  0  0  0  0  0
   -5.1001    0.3478  -21.8137 C   0  0  0  0  0  0  0  0  0  0  0  0
   -5.4932   -0.0121  -20.4955 C   0  0  0  0  0  0  0  0  0  0  0  0
   -5.6986    0.0325  -22.6640 H   0  0  0  0  0  0  0  0  0  0  0  0
   -3.7182    1.4242  -23.0349 H   0  0  0  0  0  0  0  0  0  0  0  0
   -2.4082    2.3034  -21.1107 H   0  0  0  0  0  0  0  0  0  0  0  0
   -3.0856    1.7381  -18.7953 H   0  0  0  0  0  0  0  0  0  0  0  0
   -4.6066    0.5921  -17.2460 H   0  0  0  0  0  0  0  0  0  0  0  0
   -7.7894   -1.6550  -18.5911 H   0  0  0  0  0  0  0  0  0  0  0  0
   -6.9915   -2.5555  -21.9764 C   0  0  0  0  0  0  0  0  0  0  0  0
   -8.3308   -3.1542  -22.4485 C   0  0  2  0  0  0  0  0  0  0  0  0
   -8.2072   -3.9965  -23.7170 C   0  0  0  0  0  0  0  0  0  0  0  0
   -7.4341   -5.1463  -23.4691 O   0  0  0  0  0  0  0  0  0  0  0  0
   -6.1561   -5.2175  -24.0870 C   0  0  0  0  0  0  0  0  0  0  0  0
   -6.2641   -5.7322  -25.5154 C   0  0  0  0  0  0  0  0  0  0  0  0
   -6.8709   -5.0721  -26.1417 H   0  0  0  0  0  0  0  0  0  0  0  0
   -5.2713   -5.8081  -25.9671 H   0  0  0  0  0  0  0  0  0  0  0  0
   -6.7226   -6.7243  -25.5229 H   0  0  0  0  0  0  0  0  0  0  0  0
   -5.3276   -6.1322  -23.2037 C   0  0  0  0  0  0  0  0  0  0  0  0
   -5.7769   -7.1303  -23.1891 H   0  0  0  0  0  0  0  0  0  0  0  0
   -5.3143   -5.7439  -22.1807 H   0  0  0  0  0  0  0  0  0  0  0  0
   -4.2971   -6.2138  -23.5655 H   0  0  0  0  0  0  0  0  0  0  0  0
   -5.7042   -4.2132  -24.1010 H   0  0  0  0  0  0  0  0  0  0  0  0
   -7.7658   -3.3888  -24.5231 H   0  0  0  0  0  0  0  0  0  0  0  0
   -9.2096   -4.3112  -24.0446 H   0  0  0  0  0  0  0  0  0  0  0  0
   -8.6552   -3.8207  -21.6449 H   0  0  0  0  0  0  0  0  0  0  0  0
   -6.3676   -2.2365  -22.8283 H   0  0  0  0  0  0  0  0  0  0  0  0
   -6.4024   -3.2604  -21.3793 H   0  0  0  0  0  0  0  0  0  0  0  0
  -10.7888   -2.2733  -22.2588 C   0  0  0  0  0  0  0  0  0  0  0  0
  -11.2347   -3.4067  -21.5651 C   0  0  0  0  0  0  0  0  0  0  0  0
  -12.5623   -3.4901  -21.1821 C   0  0  0  0  0  0  0  0  0  0  0  0
  -12.9497   -4.4243  -20.3001 F   0  0  0  0  0  0  0  0  0  0  0  0
  -13.5305   -2.5961  -21.6132 C   0  0  0  0  0  0  0  0  0  0  0  0
  -13.1138   -1.5161  -22.3572 C   0  0  0  0  0  0  0  0  0  0  0  0
  -11.7589   -1.3253  -22.6248 C   0  0  0  0  0  0  0  0  0  0  0  0
  -11.3639   -0.0448  -23.2856 C   0  0  0  0  0  0  0  0  0  0  0  0
  -12.1115    0.9235  -23.3085 O   0  0  0  0  0  0  0  0  0  0  0  0
  -13.8302   -0.8051  -22.7517 H   0  0  0  0  0  0  0  0  0  0  0  0
  -14.5655   -2.7441  -21.3272 H   0  0  0  0  0  0  0  0  0  0  0  0
  -10.5663   -4.1912  -21.2317 H   0  0  0  0  0  0  0  0  0  0  0  0
   -9.5905   -1.8891  -24.6874 H   0  0  0  0  0  0  0  0  0  0  0  0
   -8.2476   -0.8792  -24.0921 H   0  0  0  0  0  0  0  0  0  0  0  0
  -10.4954    1.8650  -24.5361 H   0  0  0  0  0  0  0  0  0  0  0  0
   -9.3974    0.9274  -25.5650 H   0  0  0  0  0  0  0  0  0  0  0  0
   -9.5989    2.4055  -22.2010 H   0  0  0  0  0  0  0  0  0  0  0  0
   -7.0934    2.2784  -21.4019 H   0  0  0  0  0  0  0  0  0  0  0  0
   -7.9282    3.8468  -21.2857 H   0  0  0  0  0  0  0  0  0  0  0  0
   -6.8909    3.5216  -22.6626 H   0  0  0  0  0  0  0  0  0  0  0  0
  1  2  1  0
  2  3  1  0
  3  4  2  0
  3  5  1  0
  5  6  1  0
  6  7  1  0
  8  7  1  6
  8  9  1  0
  9 10  2  0
  9 11  1  0
 11 12  1  0
 12 13  2  0
 13 14  1  0
 14 15  2  0
 15 16  1  0
 16 17  2  0
 17 18  1  0
 18 19  2  0
 19 20  1  0
 20 21  2  0
 20 22  1  0
 19 23  1  0
 18 24  1  0
 17 25  1  0
 15 26  1  0
 13 27  1  0
 11 28  1  0
 28 29  1  0
 29 30  1  0
 30 31  1  0
 31 32  1  0
 32 33  1  0
 33 34  1  0
 33 35  1  0
 33 36  1  0
 32 37  1  0
 37 38  1  0
 37 39  1  0
 37 40  1  0
 32 41  1  0
 30 42  1  0
 30 43  1  0
 29 44  1  1
 28 45  1  0
 28 46  1  0
  8 47  1  0
 47 48  2  0
 48 49  1  0
 49 50  1  0
 49 51  2  0
 51 52  1  0
 52 53  2  0
 53 54  1  0
 54 55  2  0
 52 56  1  0
 51 57  1  0
 48 58  1  0
  7 59  1  0
  7 60  1  0
  5 61  1  0
  5 62  1  0
  2 63  1  0
  1 64  1  0
  1 65  1  0
  1 66  1  0
 54  6  1  0
 29  8  1  0
 53 47  1  0
 21 12  1  0
 21 16  1  0
M  END
>  <cnnaffinities>  (48) 
[6.82882, 6.74793, 6.75079]

>  <score>  (48) 
6.82882

>  <index>  (48) 
50

>  <Smiles>  (48) 
C(N(C(=O)C(N1C([C@@]2(C(=O)N(c3c(nc(c4c(c(c(c(c34)[H])[H])[H])[H])[H])[H])C([C@@]2(C(OC(C([H])([H])[H])(C([H])([H])[H])[H])([H])[H])[H])([H])[H])c2c(c(F)c(c(c2C1=O)[H])[H])[H])([H])[H])([H])[H])[H])([H])([H])[H]

>  <h>  (48) 
<NA>

>  <Training>  (48) 
True

>  <Success>  (48) 
True

>  <enamine_searched>  (48) 
False

>  <enamine_id>  (48) 
nan

$$$$

     RDKit          3D

 50 52  0  0  0  0  0  0  0  0999 V2000
   -9.3524   -1.2015  -26.4904 C   0  0  0  0  0  0  0  0  0  0  0  0
   -8.9782   -0.4138  -25.4854 C   0  0  0  0  0  0  0  0  0  0  0  0
   -9.5737   -0.4979  -24.0923 C   0  0  0  0  0  0  0  0  0  0  0  0
   -8.7364   -1.2462  -23.1572 N   0  0  0  0  0  0  0  0  0  0  0  0
   -8.0415   -0.5407  -22.2000 C   0  0  0  0  0  0  0  0  0  0  0  0
   -8.0401    0.6868  -22.1637 O   0  0  0  0  0  0  0  0  0  0  0  0
   -7.3490   -1.3296  -21.3120 N   0  0  0  0  0  0  0  0  0  0  0  0
   -6.5966   -0.7822  -20.2564 C   0  0  0  0  0  0  0  0  0  0  0  0
   -6.9227   -1.0470  -18.9525 C   0  0  0  0  0  0  0  0  0  0  0  0
   -6.2473   -0.5660  -17.8835 N   0  0  0  0  0  0  0  0  0  0  0  0
   -5.2100    0.1989  -18.1219 C   0  0  0  0  0  0  0  0  0  0  0  0
   -4.7510    0.5339  -19.4254 C   0  0  0  0  0  0  0  0  0  0  0  0
   -3.6021    1.3419  -19.6409 C   0  0  0  0  0  0  0  0  0  0  0  0
   -3.1826    1.6253  -20.9123 C   0  0  0  0  0  0  0  0  0  0  0  0
   -3.8857    1.1141  -22.0250 C   0  0  0  0  0  0  0  0  0  0  0  0
   -4.9902    0.3248  -21.8418 C   0  0  0  0  0  0  0  0  0  0  0  0
   -5.4636    0.0324  -20.5330 C   0  0  0  0  0  0  0  0  0  0  0  0
   -5.5290   -0.0720  -22.6937 H   0  0  0  0  0  0  0  0  0  0  0  0
   -3.5608    1.3662  -23.0317 H   0  0  0  0  0  0  0  0  0  0  0  0
   -2.3072    2.2471  -21.0663 H   0  0  0  0  0  0  0  0  0  0  0  0
   -3.0814    1.7420  -18.7748 H   0  0  0  0  0  0  0  0  0  0  0  0
   -4.6838    0.5882  -17.2526 H   0  0  0  0  0  0  0  0  0  0  0  0
   -7.7776   -1.6825  -18.7289 H   0  0  0  0  0  0  0  0  0  0  0  0
   -7.6625   -2.2861  -21.2034 H   0  0  0  0  0  0  0  0  0  0  0  0
   -8.4057   -2.5824  -23.5377 C   0  0  0  0  0  0  0  0  0  0  0  0
   -9.4231   -3.5168  -23.7110 C   0  0  0  0  0  0  0  0  0  0  0  0
   -9.1285   -4.8131  -24.1187 C   0  0  0  0  0  0  0  0  0  0  0  0
   -7.8195   -5.1925  -24.3989 C   0  0  0  0  0  0  0  0  0  0  0  0
   -6.8180   -4.2361  -24.2746 C   0  0  0  0  0  0  0  0  0  0  0  0
   -5.1787   -4.6745  -24.6773 Cl  0  0  0  0  0  0  0  0  0  0  0  0
   -7.0936   -2.9409  -23.8537 C   0  0  0  0  0  0  0  0  0  0  0  0
   -6.2919   -2.2122  -23.7924 H   0  0  0  0  0  0  0  0  0  0  0  0
   -7.5911   -6.1995  -24.7405 H   0  0  0  0  0  0  0  0  0  0  0  0
   -9.9382   -5.5280  -24.2448 H   0  0  0  0  0  0  0  0  0  0  0  0
  -10.4477   -3.2147  -23.5188 H   0  0  0  0  0  0  0  0  0  0  0  0
   -9.7757    0.4811  -23.6484 H   0  0  0  0  0  0  0  0  0  0  0  0
  -10.5119   -1.0496  -24.1470 H   0  0  0  0  0  0  0  0  0  0  0  0
   -7.8280    0.5002  -25.7816 C   0  0  0  0  0  0  0  0  0  0  0  0
   -7.1637    0.3672  -26.8021 O   0  0  0  0  0  0  0  0  0  0  0  0
   -7.5570    1.4736  -24.8740 N   0  0  0  0  0  0  0  0  0  0  0  0
   -6.2408    2.0729  -24.9814 C   0  0  0  0  0  0  0  0  0  0  0  0
   -6.0816    3.1524  -23.9321 C   0  0  0  0  0  0  0  0  0  0  0  0
   -6.7801    3.9786  -24.1149 H   0  0  0  0  0  0  0  0  0  0  0  0
   -6.2748    2.7227  -22.9373 H   0  0  0  0  0  0  0  0  0  0  0  0
   -5.0630    3.5542  -23.9465 H   0  0  0  0  0  0  0  0  0  0  0  0
   -6.1234    2.4567  -26.0004 H   0  0  0  0  0  0  0  0  0  0  0  0
   -5.4626    1.2986  -24.8548 H   0  0  0  0  0  0  0  0  0  0  0  0
   -7.9635    1.4462  -23.9428 H   0  0  0  0  0  0  0  0  0  0  0  0
   -8.8486   -1.1337  -27.4528 H   0  0  0  0  0  0  0  0  0  0  0  0
  -10.1746   -1.9065  -26.3711 H   0  0  0  0  0  0  0  0  0  0  0  0
  1  2  2  0
  2  3  1  0
  3  4  1  0
  4  5  1  0
  5  6  2  0
  5  7  1  0
  7  8  1  0
  8  9  2  0
  9 10  1  0
 10 11  2  0
 11 12  1  0
 12 13  2  0
 13 14  1  0
 14 15  2  0
 15 16  1  0
 16 17  2  0
 16 18  1  0
 15 19  1  0
 14 20  1  0
 13 21  1  0
 11 22  1  0
  9 23  1  0
  7 24  1  0
  4 25  1  0
 25 26  2  0
 26 27  1  0
 27 28  2  0
 28 29  1  0
 29 30  1  0
 29 31  2  0
 31 32  1  0
 28 33  1  0
 27 34  1  0
 26 35  1  0
  3 36  1  0
  3 37  1  0
  2 38  1  0
 38 39  2  0
 38 40  1  0
 40 41  1  0
 41 42  1  0
 42 43  1  0
 42 44  1  0
 42 45  1  0
 41 46  1  0
 41 47  1  0
 40 48  1  0
  1 49  1  0
  1 50  1  0
 17  8  1  0
 31 25  1  0
 17 12  1  0
M  END
>  <cnnaffinities>  (49) 
[5.91852, 5.87057]

>  <score>  (49) 
5.91852

>  <index>  (49) 
51

>  <Smiles>  (49) 
C(=C(C(N(C(=O)N(c1c(nc(c2c(c(c(c(c12)[H])[H])[H])[H])[H])[H])[H])c1c(c(c(c(Cl)c1[H])[H])[H])[H])([H])[H])C(=O)N(C(C([H])([H])[H])([H])[H])[H])([H])[H]

>  <h>  (49) 
<NA>

>  <Training>  (49) 
True

>  <Success>  (49) 
True

>  <enamine_searched>  (49) 
False

>  <enamine_id>  (49) 
nan

$$$$

     RDKit          3D

 57 60  0  0  0  0  0  0  0  0999 V2000
   -6.4449    7.0850  -21.4775 C   0  0  0  0  0  0  0  0  0  0  0  0
   -6.8199    6.9935  -22.9600 C   0  0  0  0  0  0  0  0  0  0  0  0
   -7.8720    5.9373  -23.2109 C   0  0  0  0  0  0  0  0  0  0  0  0
   -9.0582    6.2177  -23.2285 O   0  0  0  0  0  0  0  0  0  0  0  0
   -7.3986    4.6617  -23.4005 N   0  0  0  0  0  0  0  0  0  0  0  0
   -8.1984    3.5654  -23.7945 C   0  0  0  0  0  0  0  0  0  0  0  0
   -9.2478    3.7672  -24.6905 C   0  0  0  0  0  0  0  0  0  0  0  0
  -10.0106    2.6868  -25.1052 C   0  0  0  0  0  0  0  0  0  0  0  0
   -9.7528    1.4130  -24.6076 C   0  0  0  0  0  0  0  0  0  0  0  0
   -8.7135    1.2047  -23.6986 C   0  0  0  0  0  0  0  0  0  0  0  0
   -8.4435   -0.1189  -23.2203 N   0  0  0  0  0  0  0  0  0  0  0  0
   -8.2244   -1.1947  -24.1924 C   0  0  0  0  0  0  0  0  0  0  0  0
   -6.8221   -1.2173  -24.7820 C   0  0  0  0  0  0  0  0  0  0  0  0
   -5.9892   -2.3291  -24.6338 C   0  0  0  0  0  0  0  0  0  0  0  0
   -4.7321   -2.3720  -25.2319 C   0  0  0  0  0  0  0  0  0  0  0  0
   -4.2459   -1.2383  -25.8785 C   0  0  0  0  0  0  0  0  0  0  0  0
   -5.0797   -0.1349  -26.0541 C   0  0  0  0  0  0  0  0  0  0  0  0
   -6.3740   -0.1347  -25.5418 C   0  0  0  0  0  0  0  0  0  0  0  0
   -7.0649    0.6787  -25.7699 H   0  0  0  0  0  0  0  0  0  0  0  0
   -4.7425    0.7210  -26.6328 H   0  0  0  0  0  0  0  0  0  0  0  0
   -3.2169   -1.2117  -26.2267 H   0  0  0  0  0  0  0  0  0  0  0  0
   -4.1467   -3.2913  -25.1885 H   0  0  0  0  0  0  0  0  0  0  0  0
   -6.3170   -3.1712  -24.0241 H   0  0  0  0  0  0  0  0  0  0  0  0
   -8.9575   -1.0746  -25.0039 H   0  0  0  0  0  0  0  0  0  0  0  0
   -8.4485   -2.1501  -23.7102 H   0  0  0  0  0  0  0  0  0  0  0  0
   -8.3695   -0.2955  -21.8365 C   0  0  0  0  0  0  0  0  0  0  0  0
   -9.0168    0.3892  -21.0660 O   0  0  0  0  0  0  0  0  0  0  0  0
   -7.4452   -1.3867  -21.2831 C   0  0  0  0  0  0  0  0  0  0  0  0
   -6.5753   -0.8316  -20.1818 C   0  0  0  0  0  0  0  0  0  0  0  0
   -6.8803   -1.0414  -18.8621 C   0  0  0  0  0  0  0  0  0  0  0  0
   -6.1892   -0.5392  -17.8067 N   0  0  0  0  0  0  0  0  0  0  0  0
   -5.1566    0.2173  -18.0753 C   0  0  0  0  0  0  0  0  0  0  0  0
   -4.7189    0.5257  -19.3916 C   0  0  0  0  0  0  0  0  0  0  0  0
   -3.5977    1.3595  -19.6291 C   0  0  0  0  0  0  0  0  0  0  0  0
   -3.2153    1.6561  -20.9060 C   0  0  0  0  0  0  0  0  0  0  0  0
   -3.9389    1.1315  -22.0020 C   0  0  0  0  0  0  0  0  0  0  0  0
   -5.0276    0.3196  -21.7987 C   0  0  0  0  0  0  0  0  0  0  0  0
   -5.4503   -0.0049  -20.4807 C   0  0  0  0  0  0  0  0  0  0  0  0
   -5.5645   -0.0676  -22.6626 H   0  0  0  0  0  0  0  0  0  0  0  0
   -3.6342    1.3766  -23.0159 H   0  0  0  0  0  0  0  0  0  0  0  0
   -2.3663    2.3065  -21.0861 H   0  0  0  0  0  0  0  0  0  0  0  0
   -3.0734    1.7711  -18.7694 H   0  0  0  0  0  0  0  0  0  0  0  0
   -4.6069    0.6259  -17.2257 H   0  0  0  0  0  0  0  0  0  0  0  0
   -7.7322   -1.6623  -18.5877 H   0  0  0  0  0  0  0  0  0  0  0  0
   -8.0918   -2.1657  -20.8625 H   0  0  0  0  0  0  0  0  0  0  0  0
   -6.8411   -1.8485  -22.0681 H   0  0  0  0  0  0  0  0  0  0  0  0
   -7.9156    2.2846  -23.3080 C   0  0  0  0  0  0  0  0  0  0  0  0
   -7.0760    2.1222  -22.6319 H   0  0  0  0  0  0  0  0  0  0  0  0
  -10.3606    0.5595  -24.8765 H   0  0  0  0  0  0  0  0  0  0  0  0
  -10.8026    2.8708  -25.8297 H   0  0  0  0  0  0  0  0  0  0  0  0
   -9.4665    4.7617  -25.0616 H   0  0  0  0  0  0  0  0  0  0  0  0
   -6.4331    4.4675  -23.1825 H   0  0  0  0  0  0  0  0  0  0  0  0
   -5.9327    6.8023  -23.5723 H   0  0  0  0  0  0  0  0  0  0  0  0
   -7.2760    7.9245  -23.3041 H   0  0  0  0  0  0  0  0  0  0  0  0
   -7.3308    7.2950  -20.8735 H   0  0  0  0  0  0  0  0  0  0  0  0
   -5.7276    7.8931  -21.3060 H   0  0  0  0  0  0  0  0  0  0  0  0
   -5.9931    6.1547  -21.1123 H   0  0  0  0  0  0  0  0  0  0  0  0
  1  2  1  0
  2  3  1  0
  3  4  2  0
  3  5  1  0
  5  6  1  0
  6  7  2  0
  7  8  1  0
  8  9  2  0
  9 10  1  0
 10 11  1  0
 11 12  1  0
 12 13  1  0
 13 14  2  0
 14 15  1  0
 15 16  2  0
 16 17  1  0
 17 18  2  0
 18 19  1  0
 17 20  1  0
 16 21  1  0
 15 22  1  0
 14 23  1  0
 12 24  1  0
 12 25  1  0
 11 26  1  0
 26 27  2  0
 26 28  1  0
 28 29  1  0
 29 30  2  0
 30 31  1  0
 31 32  2  0
 32 33  1  0
 33 34  2  0
 34 35  1  0
 35 36  2  0
 36 37  1  0
 37 38  2  0
 37 39  1  0
 36 40  1  0
 35 41  1  0
 34 42  1  0
 32 43  1  0
 30 44  1  0
 28 45  1  0
 28 46  1  0
 10 47  2  0
 47 48  1  0
  9 49  1  0
  8 50  1  0
  7 51  1  0
  5 52  1  0
  2 53  1  0
  2 54  1  0
  1 55  1  0
  1 56  1  0
  1 57  1  0
 47  6  1  0
 18 13  1  0
 38 29  1  0
 38 33  1  0
M  END
>  <cnnaffinities>  (50) 
[5.35921, 5.50873, 6.02762, 6.02799, 6.01568, 6.01169, 5.36118, 5.35867, 5.56442, 5.56222]

>  <score>  (50) 
5.35921

>  <index>  (50) 
52

>  <Smiles>  (50) 
C(C(C(=O)N(c1c(c(c(c(N(C(c2c(c(c(c(c2[H])[H])[H])[H])[H])([H])[H])C(=O)C(c2c(nc(c3c(c(c(c(c23)[H])[H])[H])[H])[H])[H])([H])[H])c1[H])[H])[H])[H])[H])([H])[H])([H])([H])[H]

>  <h>  (50) 
<NA>

>  <Training>  (50) 
True

>  <Success>  (50) 
True

>  <enamine_searched>  (50) 
False

>  <enamine_id>  (50) 
nan

$$$$

     RDKit          3D

 59 63  0  0  0  0  0  0  0  0999 V2000
   -7.7151    4.3855  -22.3580 C   0  0  0  0  0  0  0  0  0  0  0  0
   -6.7567    3.4816  -23.1042 C   0  0  0  0  0  0  0  0  0  0  0  0
   -7.4970    2.7308  -24.0949 N   0  0  0  0  0  0  0  0  0  0  0  0
   -6.9167    1.7071  -24.7416 C   0  0  0  0  0  0  0  0  0  0  0  0
   -5.7088    1.4875  -24.7136 O   0  0  0  0  0  0  0  0  0  0  0  0
   -7.8774    0.8324  -25.5576 C   0  0  0  0  0  0  0  0  0  0  0  0
   -8.8696    0.1395  -24.7443 N   0  0  0  0  0  0  0  0  0  0  0  0
   -8.5200   -1.2012  -24.3152 C   0  0  0  0  0  0  0  0  0  0  0  0
   -8.9974   -1.4955  -22.8689 C   0  0  2  0  0  0  0  0  0  0  0  0
   -8.2250   -0.5892  -21.8884 C   0  0  0  0  0  0  0  0  0  0  0  0
   -8.3090    0.6199  -21.7682 O   0  0  0  0  0  0  0  0  0  0  0  0
   -7.3796   -1.3770  -21.1567 N   0  0  0  0  0  0  0  0  0  0  0  0
   -6.5668   -0.8269  -20.1492 C   0  0  0  0  0  0  0  0  0  0  0  0
   -6.8685   -1.0683  -18.8342 C   0  0  0  0  0  0  0  0  0  0  0  0
   -6.1753   -0.5601  -17.7934 N   0  0  0  0  0  0  0  0  0  0  0  0
   -5.1500    0.2074  -18.0720 C   0  0  0  0  0  0  0  0  0  0  0  0
   -4.7213    0.5165  -19.3930 C   0  0  0  0  0  0  0  0  0  0  0  0
   -3.5948    1.3448  -19.6327 C   0  0  0  0  0  0  0  0  0  0  0  0
   -3.2003    1.6319  -20.9108 C   0  0  0  0  0  0  0  0  0  0  0  0
   -3.9163    1.1043  -22.0084 C   0  0  0  0  0  0  0  0  0  0  0  0
   -5.0037    0.2908  -21.8032 C   0  0  0  0  0  0  0  0  0  0  0  0
   -5.4439   -0.0149  -20.4812 C   0  0  0  0  0  0  0  0  0  0  0  0
   -5.5424   -0.0990  -22.6613 H   0  0  0  0  0  0  0  0  0  0  0  0
   -3.6342    1.3671  -23.0246 H   0  0  0  0  0  0  0  0  0  0  0  0
   -2.3413    2.2732  -21.0856 H   0  0  0  0  0  0  0  0  0  0  0  0
   -3.0715    1.7548  -18.7755 H   0  0  0  0  0  0  0  0  0  0  0  0
   -4.5993    0.6249  -17.2299 H   0  0  0  0  0  0  0  0  0  0  0  0
   -7.7284   -1.6891  -18.5830 H   0  0  0  0  0  0  0  0  0  0  0  0
   -7.3951   -2.7779  -21.4988 C   0  0  0  0  0  0  0  0  0  0  0  0
   -8.6282   -2.9298  -22.4015 C   0  0  2  0  0  0  0  0  0  0  0  0
   -8.4328   -3.9819  -23.4908 C   0  0  0  0  0  0  0  0  0  0  0  0
   -8.2562   -4.9628  -23.0357 H   0  0  0  0  0  0  0  0  0  0  0  0
   -7.5672   -3.7440  -24.1211 H   0  0  0  0  0  0  0  0  0  0  0  0
   -9.3142   -4.0608  -24.1378 H   0  0  0  0  0  0  0  0  0  0  0  0
   -9.4439   -3.2816  -21.7704 H   0  0  0  0  0  0  0  0  0  0  0  0
   -6.4742   -3.0778  -22.0176 H   0  0  0  0  0  0  0  0  0  0  0  0
   -7.4741   -3.3846  -20.5952 H   0  0  0  0  0  0  0  0  0  0  0  0
  -10.4658   -1.1602  -22.7721 C   0  0  0  0  0  0  0  0  0  0  0  0
  -11.3331   -1.8555  -21.9237 C   0  0  0  0  0  0  0  0  0  0  0  0
  -12.6851   -1.5745  -21.9575 C   0  0  0  0  0  0  0  0  0  0  0  0
  -13.7460   -2.5589  -20.9783 Cl  0  0  0  0  0  0  0  0  0  0  0  0
  -13.1871   -0.4820  -22.6729 C   0  0  0  0  0  0  0  0  0  0  0  0
  -12.2869    0.3331  -23.3458 C   0  0  0  0  0  0  0  0  0  0  0  0
  -10.9404   -0.0351  -23.4487 C   0  0  0  0  0  0  0  0  0  0  0  0
   -9.9913    0.7705  -24.2993 C   0  0  0  0  0  0  0  0  0  0  0  0
  -10.2155    1.9547  -24.5639 O   0  0  0  0  0  0  0  0  0  0  0  0
  -12.6290    1.2526  -23.8096 H   0  0  0  0  0  0  0  0  0  0  0  0
  -14.2595   -0.2877  -22.6661 H   0  0  0  0  0  0  0  0  0  0  0  0
  -10.9492   -2.5543  -21.1892 H   0  0  0  0  0  0  0  0  0  0  0  0
   -7.4292   -1.2823  -24.3441 H   0  0  0  0  0  0  0  0  0  0  0  0
   -8.9528   -1.9310  -25.0102 H   0  0  0  0  0  0  0  0  0  0  0  0
   -7.2636    0.0766  -26.0525 H   0  0  0  0  0  0  0  0  0  0  0  0
   -8.3642    1.4279  -26.3380 H   0  0  0  0  0  0  0  0  0  0  0  0
   -8.5089    2.7901  -24.1208 H   0  0  0  0  0  0  0  0  0  0  0  0
   -6.2698    2.7768  -22.4137 H   0  0  0  0  0  0  0  0  0  0  0  0
   -5.9620    4.0362  -23.6117 H   0  0  0  0  0  0  0  0  0  0  0  0
   -8.4704    3.7598  -21.8773 H   0  0  0  0  0  0  0  0  0  0  0  0
   -8.2168    5.0892  -23.0315 H   0  0  0  0  0  0  0  0  0  0  0  0
   -7.2028    4.9597  -21.5833 H   0  0  0  0  0  0  0  0  0  0  0  0
  1  2  1  0
  2  3  1  0
  3  4  1  0
  4  5  2  0
  4  6  1  0
  6  7  1  0
  7  8  1  0
  9  8  1  6
  9 10  1  0
 10 11  2  0
 10 12  1  0
 12 13  1  0
 13 14  2  0
 14 15  1  0
 15 16  2  0
 16 17  1  0
 17 18  2  0
 18 19  1  0
 19 20  2  0
 20 21  1  0
 21 22  2  0
 21 23  1  0
 20 24  1  0
 19 25  1  0
 18 26  1  0
 16 27  1  0
 14 28  1  0
 12 29  1  0
 29 30  1  0
 30 31  1  0
 31 32  1  0
 31 33  1  0
 31 34  1  0
 30 35  1  1
 29 36  1  0
 29 37  1  0
  9 38  1  0
 38 39  2  0
 39 40  1  0
 40 41  1  0
 40 42  2  0
 42 43  1  0
 43 44  2  0
 44 45  1  0
 45 46  2  0
 43 47  1  0
 42 48  1  0
 39 49  1  0
  8 50  1  0
  8 51  1  0
  6 52  1  0
  6 53  1  0
  3 54  1  0
  2 55  1  0
  2 56  1  0
  1 57  1  0
  1 58  1  0
  1 59  1  0
 45  7  1  0
 30  9  1  0
 44 38  1  0
 22 13  1  0
 22 17  1  0
M  END
>  <cnnaffinities>  (51) 
[6.55736]

>  <score>  (51) 
6.55736

>  <index>  (51) 
53

>  <Smiles>  (51) 
C(C(N(C(=O)C(N1C([C@@]2(C(=O)N(c3c(nc(c4c(c(c(c(c34)[H])[H])[H])[H])[H])[H])C([C@@]2(C([H])([H])[H])[H])([H])[H])c2c(c(Cl)c(c(c2C1=O)[H])[H])[H])([H])[H])([H])[H])[H])([H])[H])([H])([H])[H]

>  <h>  (51) 
<NA>

>  <Training>  (51) 
True

>  <Success>  (51) 
True

>  <enamine_searched>  (51) 
False

>  <enamine_id>  (51) 
nan

$$$$

     RDKit          3D

 40 43  0  0  0  0  0  0  0  0999 V2000
   -9.5747   -1.3390  -24.0578 C   0  0  0  0  0  0  0  0  0  0  0  0
   -8.7817   -1.6251  -22.8767 N   0  0  0  0  0  0  0  0  0  0  0  0
   -8.4640   -2.8433  -22.3330 C   0  0  0  0  0  0  0  0  0  0  0  0
   -8.9106   -4.1509  -22.9023 C   0  0  0  0  0  0  0  0  0  0  0  0
   -8.0830   -4.5386  -24.1092 C   0  0  0  0  0  0  0  0  0  0  0  0
   -8.5957   -4.4429  -25.3997 C   0  0  0  0  0  0  0  0  0  0  0  0
   -7.8120   -4.7745  -26.5012 C   0  0  0  0  0  0  0  0  0  0  0  0
   -6.5010   -5.2002  -26.3161 C   0  0  0  0  0  0  0  0  0  0  0  0
   -5.9779   -5.2881  -25.0291 C   0  0  0  0  0  0  0  0  0  0  0  0
   -6.7633   -4.9519  -23.9323 C   0  0  0  0  0  0  0  0  0  0  0  0
   -6.3509   -5.0117  -22.9279 H   0  0  0  0  0  0  0  0  0  0  0  0
   -4.9527   -5.6172  -24.8828 H   0  0  0  0  0  0  0  0  0  0  0  0
   -5.8879   -5.4612  -27.1737 H   0  0  0  0  0  0  0  0  0  0  0  0
   -8.2279   -4.7035  -27.5019 H   0  0  0  0  0  0  0  0  0  0  0  0
   -9.6184   -4.1027  -25.5464 H   0  0  0  0  0  0  0  0  0  0  0  0
   -9.9753   -4.1073  -23.1629 H   0  0  0  0  0  0  0  0  0  0  0  0
   -8.8085   -4.8958  -22.1072 H   0  0  0  0  0  0  0  0  0  0  0  0
   -7.6560   -2.7303  -21.3206 N   0  0  0  0  0  0  0  0  0  0  0  0
   -7.4047   -1.3861  -21.2124 N   0  0  0  0  0  0  0  0  0  0  0  0
   -6.5811   -0.8349  -20.1840 C   0  0  0  0  0  0  0  0  0  0  0  0
   -6.8872   -1.0590  -18.8640 C   0  0  0  0  0  0  0  0  0  0  0  0
   -6.1924   -0.5418  -17.8220 N   0  0  0  0  0  0  0  0  0  0  0  0
   -5.1599    0.2243  -18.0745 C   0  0  0  0  0  0  0  0  0  0  0  0
   -4.7208    0.5314  -19.3908 C   0  0  0  0  0  0  0  0  0  0  0  0
   -3.5838    1.3529  -19.6264 C   0  0  0  0  0  0  0  0  0  0  0  0
   -3.1779    1.6146  -20.9058 C   0  0  0  0  0  0  0  0  0  0  0  0
   -3.8818    1.0615  -21.9979 C   0  0  0  0  0  0  0  0  0  0  0  0
   -4.9733    0.2572  -21.7942 C   0  0  0  0  0  0  0  0  0  0  0  0
   -5.4400   -0.0135  -20.4796 C   0  0  0  0  0  0  0  0  0  0  0  0
   -5.4988   -0.1755  -22.6373 H   0  0  0  0  0  0  0  0  0  0  0  0
   -3.5500    1.2659  -23.0103 H   0  0  0  0  0  0  0  0  0  0  0  0
   -2.3169    2.2479  -21.0949 H   0  0  0  0  0  0  0  0  0  0  0  0
   -3.0519    1.7762  -18.7776 H   0  0  0  0  0  0  0  0  0  0  0  0
   -4.6051    0.6250  -17.2214 H   0  0  0  0  0  0  0  0  0  0  0  0
   -7.7378   -1.6772  -18.5910 H   0  0  0  0  0  0  0  0  0  0  0  0
   -8.1144   -0.6457  -22.1481 C   0  0  0  0  0  0  0  0  0  0  0  0
   -8.1378    0.5570  -22.3069 O   0  0  0  0  0  0  0  0  0  0  0  0
   -9.0063   -1.4810  -24.9822 H   0  0  0  0  0  0  0  0  0  0  0  0
   -9.8976   -0.3003  -24.0243 H   0  0  0  0  0  0  0  0  0  0  0  0
  -10.4725   -1.9607  -24.1014 H   0  0  0  0  0  0  0  0  0  0  0  0
  1  2  1  0
  2  3  1  0
  3  4  1  0
  4  5  1  0
  5  6  2  0
  6  7  1  0
  7  8  2  0
  8  9  1  0
  9 10  2  0
 10 11  1  0
  9 12  1  0
  8 13  1  0
  7 14  1  0
  6 15  1  0
  4 16  1  0
  4 17  1  0
  3 18  2  0
 18 19  1  0
 19 20  1  0
 20 21  2  0
 21 22  1  0
 22 23  2  0
 23 24  1  0
 24 25  2  0
 25 26  1  0
 26 27  2  0
 27 28  1  0
 28 29  2  0
 28 30  1  0
 27 31  1  0
 26 32  1  0
 25 33  1  0
 23 34  1  0
 21 35  1  0
 19 36  1  0
 36 37  2  0
  1 38  1  0
  1 39  1  0
  1 40  1  0
 36  2  1  0
 10  5  1  0
 29 20  1  0
 29 24  1  0
M  END
>  <cnnaffinities>  (52) 
[5.48101, 5.48203, 5.42466, 5.42459, 5.77872, 5.77983]

>  <score>  (52) 
5.48101

>  <index>  (52) 
54

>  <Smiles>  (52) 
C(n1c(C(c2c(c(c(c(c2[H])[H])[H])[H])[H])([H])[H])nn(c2c(nc(c3c(c(c(c(c23)[H])[H])[H])[H])[H])[H])c1=O)([H])([H])[H]

>  <h>  (52) 
<NA>

>  <Training>  (52) 
True

>  <Success>  (52) 
True

>  <enamine_searched>  (52) 
False

>  <enamine_id>  (52) 
nan

$$$$

     RDKit          3D

 61 66  0  0  0  0  0  0  0  0999 V2000
  -12.3782   -2.1116  -22.6074 C   0  0  0  0  0  0  0  0  0  0  0  0
  -11.3539   -2.2471  -21.6539 O   0  0  0  0  0  0  0  0  0  0  0  0
  -10.2099   -2.9492  -22.0956 C   0  0  0  0  0  0  0  0  0  0  0  0
   -9.1438   -1.9778  -22.6554 C   0  0  1  0  0  0  0  0  0  0  0  0
   -8.7108   -0.9886  -21.5518 C   0  0  0  0  0  0  0  0  0  0  0  0
   -7.3798   -1.4188  -21.1885 N   0  0  0  0  0  0  0  0  0  0  0  0
   -6.5943   -0.8209  -20.1825 C   0  0  0  0  0  0  0  0  0  0  0  0
   -6.9128   -1.0363  -18.8689 C   0  0  0  0  0  0  0  0  0  0  0  0
   -6.2178   -0.5374  -17.8225 N   0  0  0  0  0  0  0  0  0  0  0  0
   -5.1759    0.2060  -18.1019 C   0  0  0  0  0  0  0  0  0  0  0  0
   -4.7390    0.5078  -19.4220 C   0  0  0  0  0  0  0  0  0  0  0  0
   -3.6122    1.3365  -19.6468 C   0  0  0  0  0  0  0  0  0  0  0  0
   -3.2312    1.6574  -20.9175 C   0  0  0  0  0  0  0  0  0  0  0  0
   -3.9607    1.1607  -22.0225 C   0  0  0  0  0  0  0  0  0  0  0  0
   -5.0484    0.3428  -21.8388 C   0  0  0  0  0  0  0  0  0  0  0  0
   -5.4643   -0.0103  -20.5171 C   0  0  0  0  0  0  0  0  0  0  0  0
   -5.5909   -0.0284  -22.7110 H   0  0  0  0  0  0  0  0  0  0  0  0
   -3.6560    1.4461  -23.0242 H   0  0  0  0  0  0  0  0  0  0  0  0
   -2.3872    2.3199  -21.0831 H   0  0  0  0  0  0  0  0  0  0  0  0
   -3.0897    1.7345  -18.7816 H   0  0  0  0  0  0  0  0  0  0  0  0
   -4.6209    0.6187  -17.2598 H   0  0  0  0  0  0  0  0  0  0  0  0
   -7.7691   -1.6659  -18.6320 H   0  0  0  0  0  0  0  0  0  0  0  0
   -6.8410   -2.3928  -21.9903 C   0  0  0  0  0  0  0  0  0  0  0  0
   -5.7805   -2.9396  -21.7725 O   0  0  0  0  0  0  0  0  0  0  0  0
   -7.8210   -2.6357  -23.1554 C   0  0  1  0  0  0  0  0  0  0  0  0
   -7.9257   -4.1461  -23.3684 C   0  0  0  0  0  0  0  0  0  0  0  0
   -6.6622   -4.6589  -23.8668 N   0  0  0  0  0  0  0  0  0  0  0  0
   -6.2435   -5.9838  -23.4234 C   0  0  0  0  0  0  0  0  0  0  0  0
   -7.0818   -7.0456  -24.0850 C   0  0  0  0  0  0  0  0  0  0  0  0
   -6.9643   -7.5434  -25.3369 C   0  0  0  0  0  0  0  0  0  0  0  0
   -8.1572   -8.1626  -25.6458 N   0  0  0  0  0  4  0  0  0  0  0  0
   -8.9731   -8.0740  -24.5907 C   0  0  0  0  0  0  0  0  0  0  0  0
   -8.3409   -7.4087  -23.6130 N   0  0  0  0  0  0  0  0  0  0  0  0
   -8.7252   -7.1482  -22.7094 H   0  0  0  0  0  0  0  0  0  0  0  0
   -9.9932   -8.4037  -24.5828 H   0  0  0  0  0  0  0  0  0  0  0  0
   -8.3227   -8.6717  -26.5074 H   0  0  0  0  0  0  0  0  0  0  0  0
   -6.1507   -7.4589  -26.0489 H   0  0  0  0  0  0  0  0  0  0  0  0
   -6.3218   -6.0036  -22.3241 H   0  0  0  0  0  0  0  0  0  0  0  0
   -5.1904   -6.0947  -23.6980 H   0  0  0  0  0  0  0  0  0  0  0  0
   -6.1617   -4.1827  -25.0496 C   0  0  0  0  0  0  0  0  0  0  0  0
   -5.4362   -4.8450  -25.7817 O   0  0  0  0  0  0  0  0  0  0  0  0
   -6.5462   -2.7716  -25.3572 C   0  0  0  0  0  0  0  0  0  0  0  0
   -6.0973   -2.2199  -26.5546 C   0  0  0  0  0  0  0  0  0  0  0  0
   -6.3133   -0.8913  -26.8513 C   0  0  0  0  0  0  0  0  0  0  0  0
   -6.9990   -0.1202  -25.9155 C   0  0  0  0  0  0  0  0  0  0  0  0
   -7.2418    1.5719  -26.2343 Cl  0  0  0  0  0  0  0  0  0  0  0  0
   -7.4892   -0.6616  -24.7380 C   0  0  0  0  0  0  0  0  0  0  0  0
   -7.2904   -2.0153  -24.4458 C   0  0  0  0  0  0  0  0  0  0  0  0
   -8.0300   -0.0108  -24.0590 H   0  0  0  0  0  0  0  0  0  0  0  0
   -5.9462   -0.4537  -27.7740 H   0  0  0  0  0  0  0  0  0  0  0  0
   -5.5627   -2.8675  -27.2360 H   0  0  0  0  0  0  0  0  0  0  0  0
   -8.1442   -4.6295  -22.4168 H   0  0  0  0  0  0  0  0  0  0  0  0
   -8.7462   -4.3570  -24.0721 H   0  0  0  0  0  0  0  0  0  0  0  0
   -9.3756   -1.0519  -20.6974 H   0  0  0  0  0  0  0  0  0  0  0  0
   -8.7236    0.0605  -21.8777 H   0  0  0  0  0  0  0  0  0  0  0  0
   -9.6295   -1.4501  -23.4834 H   0  0  0  0  0  0  0  0  0  0  0  0
   -9.8115   -3.4696  -21.2153 H   0  0  0  0  0  0  0  0  0  0  0  0
  -10.4859   -3.7158  -22.8392 H   0  0  0  0  0  0  0  0  0  0  0  0
  -12.8346   -3.0833  -22.8546 H   0  0  0  0  0  0  0  0  0  0  0  0
  -13.1439   -1.4672  -22.1659 H   0  0  0  0  0  0  0  0  0  0  0  0
  -12.0320   -1.6439  -23.5424 H   0  0  0  0  0  0  0  0  0  0  0  0
  1  2  1  0
  2  3  1  0
  3  4  1  0
  4  5  1  0
  5  6  1  0
  6  7  1  0
  7  8  2  0
  8  9  1  0
  9 10  2  0
 10 11  1  0
 11 12  2  0
 12 13  1  0
 13 14  2  0
 14 15  1  0
 15 16  2  0
 15 17  1  0
 14 18  1  0
 13 19  1  0
 12 20  1  0
 10 21  1  0
  8 22  1  0
  6 23  1  0
 23 24  2  0
 23 25  1  0
 25 26  1  6
 26 27  1  0
 27 28  1  0
 28 29  1  0
 29 30  2  0
 30 31  1  0
 31 32  2  0
 32 33  1  0
 33 34  1  0
 32 35  1  0
 31 36  1  0
 30 37  1  0
 28 38  1  0
 28 39  1  0
 27 40  1  0
 40 41  2  0
 40 42  1  0
 42 43  2  0
 43 44  1  0
 44 45  2  0
 45 46  1  0
 45 47  1  0
 47 48  2  0
 47 49  1  0
 44 50  1  0
 43 51  1  0
 26 52  1  0
 26 53  1  0
  5 54  1  0
  5 55  1  0
  4 56  1  6
  3 57  1  0
  3 58  1  0
  1 59  1  0
  1 60  1  0
  1 61  1  0
 25  4  1  0
 33 29  1  0
 48 42  1  0
 16  7  1  0
 48 25  1  0
 16 11  1  0
M  CHG  1  31   1
M  END
>  <cnnaffinities>  (53) 
[6.25628]

>  <score>  (53) 
6.25628

>  <index>  (53) 
55

>  <Smiles>  (53) 
C(OC([C@]1(C(N(c2c(nc(c3c(c(c(c(c23)[H])[H])[H])[H])[H])[H])C(=O)[C@]21C(N(C(c1c([n+](c(n1[H])[H])[H])[H])([H])[H])C(=O)c1c(c(c(Cl)c(c21)[H])[H])[H])([H])[H])([H])[H])[H])([H])[H])([H])([H])[H]

>  <h>  (53) 
<NA>

>  <Training>  (53) 
True

>  <Success>  (53) 
True

>  <enamine_searched>  (53) 
False

>  <enamine_id>  (53) 
nan

$$$$

     RDKit          3D

 57 62  0  0  0  0  0  0  0  0999 V2000
  -10.4592   -1.1464  -23.2269 C   0  0  0  0  0  0  0  0  0  0  0  0
   -9.0113   -1.5040  -22.9070 C   0  0  1  0  0  0  0  0  0  0  0  0
   -8.3635   -0.5389  -21.9054 C   0  0  0  0  0  0  0  0  0  0  0  0
   -7.3679   -1.3542  -21.2314 N   0  0  0  0  0  0  0  0  0  0  0  0
   -6.5676   -0.8486  -20.1839 C   0  0  0  0  0  0  0  0  0  0  0  0
   -6.8870   -1.0886  -18.8693 C   0  0  0  0  0  0  0  0  0  0  0  0
   -6.2074   -0.5637  -17.8199 N   0  0  0  0  0  0  0  0  0  0  0  0
   -5.1814    0.2041  -18.0839 C   0  0  0  0  0  0  0  0  0  0  0  0
   -4.7334    0.5085  -19.4020 C   0  0  0  0  0  0  0  0  0  0  0  0
   -3.6078    1.3361  -19.6414 C   0  0  0  0  0  0  0  0  0  0  0  0
   -3.2171    1.6174  -20.9192 C   0  0  0  0  0  0  0  0  0  0  0  0
   -3.9259    1.0867  -22.0207 C   0  0  0  0  0  0  0  0  0  0  0  0
   -5.0142    0.2713  -21.8173 C   0  0  0  0  0  0  0  0  0  0  0  0
   -5.4443   -0.0252  -20.4946 C   0  0  0  0  0  0  0  0  0  0  0  0
   -5.5498   -0.1511  -22.6617 H   0  0  0  0  0  0  0  0  0  0  0  0
   -3.6128    1.3313  -23.0313 H   0  0  0  0  0  0  0  0  0  0  0  0
   -2.3613    2.2628  -21.0985 H   0  0  0  0  0  0  0  0  0  0  0  0
   -3.0901    1.7550  -18.7839 H   0  0  0  0  0  0  0  0  0  0  0  0
   -4.6398    0.6334  -17.2392 H   0  0  0  0  0  0  0  0  0  0  0  0
   -7.7311   -1.7277  -18.6152 H   0  0  0  0  0  0  0  0  0  0  0  0
   -7.5895   -2.7049  -21.3589 C   0  0  0  0  0  0  0  0  0  0  0  0
   -6.9027   -3.5566  -20.8344 O   0  0  0  0  0  0  0  0  0  0  0  0
   -8.7957   -2.9197  -22.2777 C   0  0  1  0  0  0  0  0  0  0  0  0
   -9.9869   -3.3353  -21.3991 C   0  0  0  0  0  0  0  0  0  0  0  0
  -11.1120   -3.8270  -22.1599 N   0  0  0  0  0  0  0  0  0  0  0  0
  -12.4552   -3.8020  -21.5865 C   0  0  0  0  0  0  0  0  0  0  0  0
  -13.3371   -2.7489  -22.2046 C   0  0  0  0  0  0  0  0  0  0  0  0
  -13.6141   -1.6213  -21.5666 N   0  0  0  0  0  0  0  0  0  0  0  0
  -14.3796   -0.7730  -22.2632 C   0  0  0  0  0  0  0  0  0  0  0  0
  -14.8259   -1.0022  -23.5386 C   0  0  0  0  0  0  0  0  0  0  0  0
  -14.5239   -2.2353  -24.0807 C   0  0  0  0  0  0  0  0  0  0  0  0
  -13.8194   -3.1137  -23.3956 N   0  0  0  0  0  0  0  0  0  0  0  0
  -14.8434   -2.5339  -25.0762 H   0  0  0  0  0  0  0  0  0  0  0  0
  -15.3825   -0.2382  -24.0403 H   0  0  0  0  0  0  0  0  0  0  0  0
  -14.6803    0.1499  -21.8005 H   0  0  0  0  0  0  0  0  0  0  0  0
  -12.4633   -3.7498  -20.5000 H   0  0  0  0  0  0  0  0  0  0  0  0
  -12.8899   -4.7384  -21.9177 H   0  0  0  0  0  0  0  0  0  0  0  0
  -10.9066   -4.7010  -23.1851 C   0  0  0  0  0  0  0  0  0  0  0  0
  -11.8200   -5.3484  -23.6561 O   0  0  0  0  0  0  0  0  0  0  0  0
   -9.5334   -4.8214  -23.7400 C   0  0  0  0  0  0  0  0  0  0  0  0
   -9.3145   -5.7585  -24.7490 C   0  0  0  0  0  0  0  0  0  0  0  0
   -8.0746   -5.8707  -25.3447 C   0  0  0  0  0  0  0  0  0  0  0  0
   -7.0690   -5.0178  -24.9054 C   0  0  0  0  0  0  0  0  0  0  0  0
   -5.8699   -5.0881  -25.5023 F   0  0  0  0  0  0  0  0  0  0  0  0
   -7.2570   -4.0912  -23.9006 C   0  0  0  0  0  0  0  0  0  0  0  0
   -8.5156   -3.9831  -23.3039 C   0  0  0  0  0  0  0  0  0  0  0  0
   -6.4380   -3.4528  -23.5895 H   0  0  0  0  0  0  0  0  0  0  0  0
   -7.8649   -6.5754  -26.1439 H   0  0  0  0  0  0  0  0  0  0  0  0
  -10.1370   -6.3943  -25.0515 H   0  0  0  0  0  0  0  0  0  0  0  0
   -9.6628   -4.1060  -20.7076 H   0  0  0  0  0  0  0  0  0  0  0  0
  -10.3050   -2.4665  -20.8223 H   0  0  0  0  0  0  0  0  0  0  0  0
   -9.1060   -0.1637  -21.1867 H   0  0  0  0  0  0  0  0  0  0  0  0
   -7.9043    0.3245  -22.3950 H   0  0  0  0  0  0  0  0  0  0  0  0
   -8.4275   -1.4839  -23.8365 H   0  0  0  0  0  0  0  0  0  0  0  0
  -11.0500   -1.0748  -22.3071 H   0  0  0  0  0  0  0  0  0  0  0  0
  -10.5280   -0.1833  -23.7387 H   0  0  0  0  0  0  0  0  0  0  0  0
  -10.9197   -1.9168  -23.8549 H   0  0  0  0  0  0  0  0  0  0  0  0
  1  2  1  0
  2  3  1  0
  3  4  1  0
  4  5  1  0
  5  6  2  0
  6  7  1  0
  7  8  2  0
  8  9  1  0
  9 10  2  0
 10 11  1  0
 11 12  2  0
 12 13  1  0
 13 14  2  0
 13 15  1  0
 12 16  1  0
 11 17  1  0
 10 18  1  0
  8 19  1  0
  6 20  1  0
  4 21  1  0
 21 22  2  0
 21 23  1  0
 23 24  1  1
 24 25  1  0
 25 26  1  0
 26 27  1  0
 27 28  2  0
 28 29  1  0
 29 30  2  0
 30 31  1  0
 31 32  2  0
 31 33  1  0
 30 34  1  0
 29 35  1  0
 26 36  1  0
 26 37  1  0
 25 38  1  0
 38 39  2  0
 38 40  1  0
 40 41  2  0
 41 42  1  0
 42 43  2  0
 43 44  1  0
 43 45  1  0
 45 46  2  0
 45 47  1  0
 42 48  1  0
 41 49  1  0
 24 50  1  0
 24 51  1  0
  3 52  1  0
  3 53  1  0
  2 54  1  6
  1 55  1  0
  1 56  1  0
  1 57  1  0
 23  2  1  0
 32 27  1  0
 46 40  1  0
 14  5  1  0
 46 23  1  0
 14  9  1  0
M  END
>  <cnnaffinities>  (54) 
[6.62084, 6.62739]

>  <score>  (54) 
6.62084

>  <index>  (54) 
56

>  <Smiles>  (54) 
C([C@]1(C(N(c2c(nc(c3c(c(c(c(c23)[H])[H])[H])[H])[H])[H])C(=O)[C@]21C(N(C(c1nc(c(c(n1)[H])[H])[H])([H])[H])C(=O)c1c(c(c(F)c(c21)[H])[H])[H])([H])[H])([H])[H])[H])([H])([H])[H]

>  <h>  (54) 
<NA>

>  <Training>  (54) 
True

>  <Success>  (54) 
True

>  <enamine_searched>  (54) 
False

>  <enamine_id>  (54) 
nan

$$$$

     RDKit          3D

 59 63  0  0  0  0  0  0  0  0999 V2000
   -9.9020    1.7508  -28.0469 C   0  0  0  0  0  0  0  0  0  0  0  0
   -9.8123    1.7835  -26.6018 N   0  0  0  0  0  0  0  0  0  0  0  0
   -8.7033    1.2686  -26.0034 C   0  0  0  0  0  0  0  0  0  0  0  0
   -7.7825    0.7690  -26.6299 O   0  0  0  0  0  0  0  0  0  0  0  0
   -8.7346    1.3245  -24.4783 C   0  0  0  0  0  0  0  0  0  0  0  0
   -9.5029    0.2091  -23.9799 N   0  0  0  0  0  0  0  0  0  0  0  0
   -8.9419   -1.1223  -24.0801 C   0  0  0  0  0  0  0  0  0  0  0  0
   -9.2247   -1.9059  -22.7684 C   0  0  2  0  0  0  0  0  0  0  0  0
   -8.6936   -1.0580  -21.5728 C   0  0  0  0  0  0  0  0  0  0  0  0
   -9.2950   -0.1846  -20.9875 O   0  0  0  0  0  0  0  0  0  0  0  0
   -7.3958   -1.4442  -21.3000 N   0  0  0  0  0  0  0  0  0  0  0  0
   -6.6371   -0.8414  -20.2577 C   0  0  0  0  0  0  0  0  0  0  0  0
   -6.9756   -1.0448  -18.9415 C   0  0  0  0  0  0  0  0  0  0  0  0
   -6.2694   -0.5752  -17.8815 N   0  0  0  0  0  0  0  0  0  0  0  0
   -5.2097    0.1496  -18.1334 C   0  0  0  0  0  0  0  0  0  0  0  0
   -4.7593    0.4718  -19.4425 C   0  0  0  0  0  0  0  0  0  0  0  0
   -3.6313    1.3068  -19.6580 C   0  0  0  0  0  0  0  0  0  0  0  0
   -3.2446    1.6300  -20.9278 C   0  0  0  0  0  0  0  0  0  0  0  0
   -3.9637    1.1341  -22.0358 C   0  0  0  0  0  0  0  0  0  0  0  0
   -5.0561    0.3187  -21.8525 C   0  0  0  0  0  0  0  0  0  0  0  0
   -5.4852   -0.0337  -20.5464 C   0  0  0  0  0  0  0  0  0  0  0  0
   -5.6078   -0.0504  -22.7113 H   0  0  0  0  0  0  0  0  0  0  0  0
   -3.6591    1.4072  -23.0394 H   0  0  0  0  0  0  0  0  0  0  0  0
   -2.3952    2.2882  -21.0886 H   0  0  0  0  0  0  0  0  0  0  0  0
   -3.1090    1.6974  -18.7890 H   0  0  0  0  0  0  0  0  0  0  0  0
   -4.6501    0.5287  -17.2770 H   0  0  0  0  0  0  0  0  0  0  0  0
   -7.8606   -1.6262  -18.6950 H   0  0  0  0  0  0  0  0  0  0  0  0
   -6.9461   -2.5207  -22.1712 C   0  0  0  0  0  0  0  0  0  0  0  0
   -8.2777   -3.1617  -22.6781 C   0  0  0  0  0  0  0  0  0  0  0  0
   -8.0831   -3.9346  -23.9792 C   0  0  0  0  0  0  0  0  0  0  0  0
   -7.4455   -4.8094  -23.8107 H   0  0  0  0  0  0  0  0  0  0  0  0
   -9.0550   -4.2965  -24.3306 H   0  0  0  0  0  0  0  0  0  0  0  0
   -7.6366   -3.3259  -24.7690 H   0  0  0  0  0  0  0  0  0  0  0  0
   -8.7738   -4.1463  -21.6365 C   0  0  0  0  0  0  0  0  0  0  0  0
   -7.9608   -4.8080  -21.3361 H   0  0  0  0  0  0  0  0  0  0  0  0
   -9.5435   -4.7992  -22.0400 H   0  0  0  0  0  0  0  0  0  0  0  0
   -9.1878   -3.6107  -20.7838 H   0  0  0  0  0  0  0  0  0  0  0  0
   -6.3572   -2.1169  -23.0107 H   0  0  0  0  0  0  0  0  0  0  0  0
   -6.2986   -3.2145  -21.6232 H   0  0  0  0  0  0  0  0  0  0  0  0
  -10.7619   -1.9795  -22.6943 C   0  0  0  0  0  0  0  0  0  0  0  0
  -11.5709   -3.0897  -22.3965 C   0  0  0  0  0  0  0  0  0  0  0  0
  -12.9482   -2.9734  -22.3072 C   0  0  0  0  0  0  0  0  0  0  0  0
  -13.8979   -4.4061  -22.0254 Cl  0  0  0  0  0  0  0  0  0  0  0  0
  -13.5994   -1.7551  -22.4655 C   0  0  0  0  0  0  0  0  0  0  0  0
  -12.8357   -0.6519  -22.7813 C   0  0  0  0  0  0  0  0  0  0  0  0
  -11.4569   -0.7750  -22.9431 C   0  0  0  0  0  0  0  0  0  0  0  0
  -10.7552    0.4275  -23.4915 C   0  0  0  0  0  0  0  0  0  0  0  0
  -11.2912    1.5292  -23.5273 O   0  0  0  0  0  0  0  0  0  0  0  0
  -13.2886    0.3239  -22.9397 H   0  0  0  0  0  0  0  0  0  0  0  0
  -14.6757   -1.6860  -22.3865 H   0  0  0  0  0  0  0  0  0  0  0  0
  -11.1775   -4.0755  -22.2381 H   0  0  0  0  0  0  0  0  0  0  0  0
   -9.3899   -1.6749  -24.9195 H   0  0  0  0  0  0  0  0  0  0  0  0
   -7.8688   -1.0254  -24.2770 H   0  0  0  0  0  0  0  0  0  0  0  0
   -9.2165    2.2398  -24.1299 H   0  0  0  0  0  0  0  0  0  0  0  0
   -7.7220    1.2757  -24.0579 H   0  0  0  0  0  0  0  0  0  0  0  0
  -10.6499    1.8864  -26.0492 H   0  0  0  0  0  0  0  0  0  0  0  0
   -9.0441    2.2798  -28.4732 H   0  0  0  0  0  0  0  0  0  0  0  0
   -9.8848    0.7238  -28.4313 H   0  0  0  0  0  0  0  0  0  0  0  0
  -10.8255    2.2480  -28.3518 H   0  0  0  0  0  0  0  0  0  0  0  0
  1  2  1  0
  2  3  1  0
  3  4  2  0
  3  5  1  0
  5  6  1  0
  6  7  1  0
  8  7  1  6
  8  9  1  0
  9 10  2  0
  9 11  1  0
 11 12  1  0
 12 13  2  0
 13 14  1  0
 14 15  2  0
 15 16  1  0
 16 17  2  0
 17 18  1  0
 18 19  2  0
 19 20  1  0
 20 21  2  0
 20 22  1  0
 19 23  1  0
 18 24  1  0
 17 25  1  0
 15 26  1  0
 13 27  1  0
 11 28  1  0
 28 29  1  0
 29 30  1  0
 30 31  1  0
 30 32  1  0
 30 33  1  0
 29 34  1  0
 34 35  1  0
 34 36  1  0
 34 37  1  0
 28 38  1  0
 28 39  1  0
  8 40  1  0
 40 41  2  0
 41 42  1  0
 42 43  1  0
 42 44  2  0
 44 45  1  0
 45 46  2  0
 46 47  1  0
 47 48  2  0
 45 49  1  0
 44 50  1  0
 41 51  1  0
  7 52  1  0
  7 53  1  0
  5 54  1  0
  5 55  1  0
  2 56  1  0
  1 57  1  0
  1 58  1  0
  1 59  1  0
 47  6  1  0
 29  8  1  0
 46 40  1  0
 21 12  1  0
 21 16  1  0
M  END
>  <cnnaffinities>  (55) 
[6.31382, 6.20369]

>  <score>  (55) 
6.31382

>  <index>  (55) 
57

>  <Smiles>  (55) 
C(N(C(=O)C(N1C([C@@]2(C(=O)N(c3c(nc(c4c(c(c(c(c34)[H])[H])[H])[H])[H])[H])C(C2(C([H])([H])[H])C([H])([H])[H])([H])[H])c2c(c(Cl)c(c(c2C1=O)[H])[H])[H])([H])[H])([H])[H])[H])([H])([H])[H]

>  <h>  (55) 
<NA>

>  <Training>  (55) 
True

>  <Success>  (55) 
True

>  <enamine_searched>  (55) 
False

>  <enamine_id>  (55) 
nan

$$$$

     RDKit          3D

 42 45  0  0  0  0  0  0  0  0999 V2000
  -10.8158   -3.7604  -21.6331 C   0  0  0  0  0  0  0  0  0  0  0  0
   -9.9594   -3.2441  -22.6880 N   0  0  0  0  0  0  0  0  0  0  0  0
  -10.0443   -1.8678  -23.1567 C   0  0  0  0  0  0  0  0  0  0  0  0
   -8.6700   -1.2066  -23.4292 C   0  0  1  0  0  0  0  0  0  0  0  0
   -8.0994   -0.5451  -22.1554 C   0  0  0  0  0  0  0  0  0  0  0  0
   -8.2740    0.6362  -21.9197 O   0  0  0  0  0  0  0  0  0  0  0  0
   -7.3926   -1.3552  -21.3051 N   0  0  0  0  0  0  0  0  0  0  0  0
   -6.6021   -0.8294  -20.2519 C   0  0  0  0  0  0  0  0  0  0  0  0
   -6.9267   -1.0856  -18.9447 C   0  0  0  0  0  0  0  0  0  0  0  0
   -6.2525   -0.5885  -17.8797 N   0  0  0  0  0  0  0  0  0  0  0  0
   -5.2195    0.1784  -18.1199 C   0  0  0  0  0  0  0  0  0  0  0  0
   -4.7575    0.5029  -19.4226 C   0  0  0  0  0  0  0  0  0  0  0  0
   -3.6236    1.3343  -19.6224 C   0  0  0  0  0  0  0  0  0  0  0  0
   -3.1927    1.6237  -20.8876 C   0  0  0  0  0  0  0  0  0  0  0  0
   -3.8682    1.0813  -22.0052 C   0  0  0  0  0  0  0  0  0  0  0  0
   -4.9544    0.2582  -21.8374 C   0  0  0  0  0  0  0  0  0  0  0  0
   -5.4529   -0.0242  -20.5309 C   0  0  0  0  0  0  0  0  0  0  0  0
   -5.4426   -0.1898  -22.6985 H   0  0  0  0  0  0  0  0  0  0  0  0
   -3.5286    1.3298  -23.0069 H   0  0  0  0  0  0  0  0  0  0  0  0
   -2.3370    2.2775  -21.0407 H   0  0  0  0  0  0  0  0  0  0  0  0
   -3.1240    1.7426  -18.7484 H   0  0  0  0  0  0  0  0  0  0  0  0
   -4.6945    0.5865  -17.2570 H   0  0  0  0  0  0  0  0  0  0  0  0
   -7.7866   -1.7091  -18.7006 H   0  0  0  0  0  0  0  0  0  0  0  0
   -7.4932   -2.3570  -21.3769 H   0  0  0  0  0  0  0  0  0  0  0  0
   -7.7624   -2.1751  -24.1570 C   0  0  0  0  0  0  0  0  0  0  0  0
   -6.7867   -1.7175  -25.0533 C   0  0  0  0  0  0  0  0  0  0  0  0
   -5.9509   -2.6328  -25.6817 C   0  0  0  0  0  0  0  0  0  0  0  0
   -4.7432   -2.0605  -26.8022 Cl  0  0  0  0  0  0  0  0  0  0  0  0
   -6.0518   -4.0043  -25.4396 C   0  0  0  0  0  0  0  0  0  0  0  0
   -7.0323   -4.4568  -24.5724 C   0  0  0  0  0  0  0  0  0  0  0  0
   -7.8977   -3.5494  -23.9554 C   0  0  0  0  0  0  0  0  0  0  0  0
   -8.9533   -4.0916  -23.0466 C   0  0  0  0  0  0  0  0  0  0  0  0
   -8.9058   -5.2361  -22.6067 O   0  0  0  0  0  0  0  0  0  0  0  0
   -7.1467   -5.5177  -24.3599 H   0  0  0  0  0  0  0  0  0  0  0  0
   -5.3734   -4.6961  -25.9329 H   0  0  0  0  0  0  0  0  0  0  0  0
   -6.6808   -0.6551  -25.2734 H   0  0  0  0  0  0  0  0  0  0  0  0
   -8.8255   -0.3311  -24.0693 H   0  0  0  0  0  0  0  0  0  0  0  0
  -10.5711   -1.2746  -22.3996 H   0  0  0  0  0  0  0  0  0  0  0  0
  -10.6217   -1.8233  -24.0864 H   0  0  0  0  0  0  0  0  0  0  0  0
  -11.3496   -4.6616  -21.9618 H   0  0  0  0  0  0  0  0  0  0  0  0
  -10.1701   -4.0300  -20.7885 H   0  0  0  0  0  0  0  0  0  0  0  0
  -11.5335   -2.9938  -21.3315 H   0  0  0  0  0  0  0  0  0  0  0  0
  1  2  1  0
  2  3  1  0
  3  4  1  0
  4  5  1  0
  5  6  2  0
  5  7  1  0
  7  8  1  0
  8  9  2  0
  9 10  1  0
 10 11  2  0
 11 12  1  0
 12 13  2  0
 13 14  1  0
 14 15  2  0
 15 16  1  0
 16 17  2  0
 16 18  1  0
 15 19  1  0
 14 20  1  0
 13 21  1  0
 11 22  1  0
  9 23  1  0
  7 24  1  0
  4 25  1  0
 25 26  2  0
 26 27  1  0
 27 28  1  0
 27 29  2  0
 29 30  1  0
 30 31  2  0
 31 32  1  0
 32 33  2  0
 30 34  1  0
 29 35  1  0
 26 36  1  0
  4 37  1  6
  3 38  1  0
  3 39  1  0
  1 40  1  0
  1 41  1  0
  1 42  1  0
 32  2  1  0
 17  8  1  0
 31 25  1  0
 17 12  1  0
M  END
>  <cnnaffinities>  (56) 
[5.69684]

>  <score>  (56) 
5.69684

>  <index>  (56) 
58

>  <Smiles>  (56) 
C(N1C([C@@](C(=O)N(c2c(nc(c3c(c(c(c(c23)[H])[H])[H])[H])[H])[H])[H])(c2c(c(Cl)c(c(c2C1=O)[H])[H])[H])[H])([H])[H])([H])([H])[H]

>  <h>  (56) 
<NA>

>  <Training>  (56) 
True

>  <Success>  (56) 
True

>  <enamine_searched>  (56) 
False

>  <enamine_id>  (56) 
nan

$$$$

     RDKit          3D

 60 65  0  0  0  0  0  0  0  0999 V2000
   -7.0196    3.4659  -22.7157 C   0  0  0  0  0  0  0  0  0  0  0  0
   -7.6673    2.7654  -23.8019 N   0  0  0  0  0  0  0  0  0  0  0  0
   -7.0225    1.8464  -24.5446 C   0  0  0  0  0  0  0  0  0  0  0  0
   -5.8109    1.6868  -24.5272 O   0  0  0  0  0  0  0  0  0  0  0  0
   -7.9453    0.9950  -25.4390 C   0  0  0  0  0  0  0  0  0  0  0  0
   -8.8979    0.2099  -24.6681 N   0  0  0  0  0  0  0  0  0  0  0  0
   -8.4758   -1.1265  -24.2947 C   0  0  0  0  0  0  0  0  0  0  0  0
   -8.9478   -1.5291  -22.8705 C   0  0  2  0  0  0  0  0  0  0  0  0
   -8.2307   -0.6578  -21.8250 C   0  0  0  0  0  0  0  0  0  0  0  0
   -8.3994    0.5253  -21.6064 O   0  0  0  0  0  0  0  0  0  0  0  0
   -7.3253   -1.4386  -21.1567 N   0  0  0  0  0  0  0  0  0  0  0  0
   -6.5344   -0.8688  -20.1404 C   0  0  0  0  0  0  0  0  0  0  0  0
   -6.8543   -1.0857  -18.8278 C   0  0  0  0  0  0  0  0  0  0  0  0
   -6.1706   -0.5618  -17.7859 N   0  0  0  0  0  0  0  0  0  0  0  0
   -5.1451    0.2060  -18.0629 C   0  0  0  0  0  0  0  0  0  0  0  0
   -4.7132    0.5144  -19.3837 C   0  0  0  0  0  0  0  0  0  0  0  0
   -3.5906    1.3466  -19.6301 C   0  0  0  0  0  0  0  0  0  0  0  0
   -3.2041    1.6388  -20.9112 C   0  0  0  0  0  0  0  0  0  0  0  0
   -3.9354    1.1205  -22.0057 C   0  0  0  0  0  0  0  0  0  0  0  0
   -5.0194    0.3072  -21.7940 C   0  0  0  0  0  0  0  0  0  0  0  0
   -5.4370   -0.0230  -20.4714 C   0  0  0  0  0  0  0  0  0  0  0  0
   -5.5769   -0.0761  -22.6455 H   0  0  0  0  0  0  0  0  0  0  0  0
   -3.6610    1.3875  -23.0228 H   0  0  0  0  0  0  0  0  0  0  0  0
   -2.3443    2.2793  -21.0909 H   0  0  0  0  0  0  0  0  0  0  0  0
   -3.0598    1.7554  -18.7751 H   0  0  0  0  0  0  0  0  0  0  0  0
   -4.6042    0.6322  -17.2171 H   0  0  0  0  0  0  0  0  0  0  0  0
   -7.7172   -1.7031  -18.5796 H   0  0  0  0  0  0  0  0  0  0  0  0
   -7.2526   -2.8085  -21.5995 C   0  0  0  0  0  0  0  0  0  0  0  0
   -8.4985   -2.9639  -22.4837 C   0  0  2  0  0  0  0  0  0  0  0  0
   -8.2923   -3.9631  -23.6396 C   0  0  0  0  0  0  0  0  0  0  0  0
   -7.9838   -5.3202  -23.1017 C   0  0  0  0  0  0  0  0  0  0  0  0
   -6.7618   -5.7588  -22.8217 N   0  0  0  0  0  0  0  0  0  0  0  0
   -6.9460   -6.9640  -22.2901 N   0  0  0  0  0  0  0  0  0  0  0  0
   -8.2257   -7.2317  -22.2578 N   0  0  0  0  0  2  0  0  0  0  0  0
   -8.9035   -6.2085  -22.7663 N   0  0  0  0  0  0  0  0  0  0  0  0
   -7.4500   -3.6523  -24.2652 H   0  0  0  0  0  0  0  0  0  0  0  0
   -9.2015   -4.0306  -24.2472 H   0  0  0  0  0  0  0  0  0  0  0  0
   -9.2840   -3.3812  -21.8540 H   0  0  0  0  0  0  0  0  0  0  0  0
   -6.3377   -3.0039  -22.1725 H   0  0  0  0  0  0  0  0  0  0  0  0
   -7.2564   -3.5078  -20.7591 H   0  0  0  0  0  0  0  0  0  0  0  0
  -10.4375   -1.2669  -22.7785 C   0  0  0  0  0  0  0  0  0  0  0  0
  -11.2770   -2.0074  -21.9361 C   0  0  0  0  0  0  0  0  0  0  0  0
  -12.6410   -1.7858  -21.9458 C   0  0  0  0  0  0  0  0  0  0  0  0
  -13.6425   -2.7571  -20.8887 Cl  0  0  0  0  0  0  0  0  0  0  0  0
  -13.1870   -0.7362  -22.6895 C   0  0  0  0  0  0  0  0  0  0  0  0
  -12.3285    0.1120  -23.3690 C   0  0  0  0  0  0  0  0  0  0  0  0
  -10.9644   -0.1559  -23.4442 C   0  0  0  0  0  0  0  0  0  0  0  0
  -10.0642    0.7546  -24.2324 C   0  0  0  0  0  0  0  0  0  0  0  0
  -10.3501    1.9367  -24.4444 O   0  0  0  0  0  0  0  0  0  0  0  0
  -12.7118    1.0060  -23.8356 H   0  0  0  0  0  0  0  0  0  0  0  0
  -14.2592   -0.5749  -22.7039 H   0  0  0  0  0  0  0  0  0  0  0  0
  -10.8653   -2.6923  -21.2013 H   0  0  0  0  0  0  0  0  0  0  0  0
   -7.3800   -1.1511  -24.3405 H   0  0  0  0  0  0  0  0  0  0  0  0
   -8.8696   -1.8446  -25.0227 H   0  0  0  0  0  0  0  0  0  0  0  0
   -8.4767    1.6276  -26.1575 H   0  0  0  0  0  0  0  0  0  0  0  0
   -7.3027    0.3002  -25.9886 H   0  0  0  0  0  0  0  0  0  0  0  0
   -8.6732    2.7990  -23.8851 H   0  0  0  0  0  0  0  0  0  0  0  0
   -7.7752    4.0606  -22.1973 H   0  0  0  0  0  0  0  0  0  0  0  0
   -6.2408    4.1283  -23.1002 H   0  0  0  0  0  0  0  0  0  0  0  0
   -6.5690    2.7635  -22.0018 H   0  0  0  0  0  0  0  0  0  0  0  0
  1  2  1  0
  2  3  1  0
  3  4  2  0
  3  5  1  0
  5  6  1  0
  6  7  1  0
  8  7  1  6
  8  9  1  0
  9 10  2  0
  9 11  1  0
 11 12  1  0
 12 13  2  0
 13 14  1  0
 14 15  2  0
 15 16  1  0
 16 17  2  0
 17 18  1  0
 18 19  2  0
 19 20  1  0
 20 21  2  0
 20 22  1  0
 19 23  1  0
 18 24  1  0
 17 25  1  0
 15 26  1  0
 13 27  1  0
 11 28  1  0
 28 29  1  0
 29 30  1  0
 30 31  1  0
 31 32  1  0
 32 33  2  0
 33 34  1  0
 34 35  1  0
 30 36  1  0
 30 37  1  0
 29 38  1  1
 28 39  1  0
 28 40  1  0
  8 41  1  0
 41 42  2  0
 42 43  1  0
 43 44  1  0
 43 45  2  0
 45 46  1  0
 46 47  2  0
 47 48  1  0
 48 49  2  0
 46 50  1  0
 45 51  1  0
 42 52  1  0
  7 53  1  0
  7 54  1  0
  5 55  1  0
  5 56  1  0
  2 57  1  0
  1 58  1  0
  1 59  1  0
  1 60  1  0
 48  6  1  0
 29  8  1  0
 35 31  2  0
 47 41  1  0
 21 12  1  0
 21 16  1  0
M  CHG  1  34  -1
M  END
>  <cnnaffinities>  (57) 
[6.91908]

>  <score>  (57) 
6.91908

>  <index>  (57) 
59

>  <Smiles>  (57) 
C(N(C(=O)C(N1C([C@@]2(C(=O)N(c3c(nc(c4c(c(c(c(c34)[H])[H])[H])[H])[H])[H])C([C@@]2(C(c2nn[n-]n2)([H])[H])[H])([H])[H])c2c(c(Cl)c(c(c2C1=O)[H])[H])[H])([H])[H])([H])[H])[H])([H])([H])[H]

>  <h>  (57) 
<NA>

>  <Training>  (57) 
True

>  <Success>  (57) 
True

>  <enamine_searched>  (57) 
False

>  <enamine_id>  (57) 
nan

$$$$

     RDKit          3D

 62 67  0  0  0  0  0  0  0  0999 V2000
  -11.3119    4.3274  -25.2227 C   0  0  0  0  0  0  0  0  0  0  0  0
   -9.8216    4.1778  -25.5279 C   0  0  0  0  0  0  0  0  0  0  0  0
   -9.0682    3.5914  -24.4243 N   0  0  0  0  0  0  0  0  0  0  0  0
   -8.4895    4.4159  -23.5360 N   0  0  0  0  0  0  0  0  0  0  0  0
   -7.9032    3.6214  -22.6495 C   0  0  0  0  0  0  0  0  0  0  0  0
   -8.1111    2.2666  -22.9709 C   0  0  0  0  0  0  0  0  0  0  0  0
   -8.8915    2.2782  -24.1017 C   0  0  0  0  0  0  0  0  0  0  0  0
   -9.4002    1.1011  -24.8866 C   0  0  0  0  0  0  0  0  0  0  0  0
   -9.8537    0.0079  -24.0473 N   0  0  0  0  0  0  0  0  0  0  0  0
   -9.0454   -1.1956  -23.9711 C   0  0  0  0  0  0  0  0  0  0  0  0
   -9.2204   -1.9254  -22.6133 C   0  0  2  0  0  0  0  0  0  0  0  0
   -8.6627   -1.0316  -21.4677 C   0  0  0  0  0  0  0  0  0  0  0  0
   -9.2273   -0.1112  -20.9150 O   0  0  0  0  0  0  0  0  0  0  0  0
   -7.3732   -1.4354  -21.1930 N   0  0  0  0  0  0  0  0  0  0  0  0
   -6.5994   -0.8253  -20.1698 C   0  0  0  0  0  0  0  0  0  0  0  0
   -6.9052   -1.0482  -18.8501 C   0  0  0  0  0  0  0  0  0  0  0  0
   -6.1941   -0.5484  -17.8104 N   0  0  0  0  0  0  0  0  0  0  0  0
   -5.1614    0.2069  -18.0830 C   0  0  0  0  0  0  0  0  0  0  0  0
   -4.7274    0.5233  -19.3997 C   0  0  0  0  0  0  0  0  0  0  0  0
   -3.6030    1.3569  -19.6425 C   0  0  0  0  0  0  0  0  0  0  0  0
   -3.2256    1.6597  -20.9205 C   0  0  0  0  0  0  0  0  0  0  0  0
   -3.9571    1.1414  -22.0125 C   0  0  0  0  0  0  0  0  0  0  0  0
   -5.0485    0.3277  -21.8025 C   0  0  0  0  0  0  0  0  0  0  0  0
   -5.4641   -0.0065  -20.4870 C   0  0  0  0  0  0  0  0  0  0  0  0
   -5.6037   -0.0614  -22.6512 H   0  0  0  0  0  0  0  0  0  0  0  0
   -3.6624    1.3983  -23.0240 H   0  0  0  0  0  0  0  0  0  0  0  0
   -2.3783    2.3165  -21.1006 H   0  0  0  0  0  0  0  0  0  0  0  0
   -3.0751    1.7703  -18.7868 H   0  0  0  0  0  0  0  0  0  0  0  0
   -4.6141    0.6158  -17.2330 H   0  0  0  0  0  0  0  0  0  0  0  0
   -7.7535   -1.6718  -18.5806 H   0  0  0  0  0  0  0  0  0  0  0  0
   -6.9599   -2.6139  -21.9346 C   0  0  0  0  0  0  0  0  0  0  0  0
   -8.2853   -3.1632  -22.5093 C   0  0  2  0  0  0  0  0  0  0  0  0
   -8.0917   -3.9879  -23.7844 C   0  0  0  0  0  0  0  0  0  0  0  0
   -7.5538   -3.4109  -24.5483 H   0  0  0  0  0  0  0  0  0  0  0  0
   -7.5041   -4.8914  -23.5829 H   0  0  0  0  0  0  0  0  0  0  0  0
   -9.0494   -4.2983  -24.2197 H   0  0  0  0  0  0  0  0  0  0  0  0
   -8.7245   -3.7999  -21.7348 H   0  0  0  0  0  0  0  0  0  0  0  0
   -6.4595   -3.3269  -21.2685 H   0  0  0  0  0  0  0  0  0  0  0  0
   -6.2509   -2.3623  -22.7401 H   0  0  0  0  0  0  0  0  0  0  0  0
  -10.7080   -2.1734  -22.4252 C   0  0  0  0  0  0  0  0  0  0  0  0
  -11.2266   -3.2525  -21.6973 C   0  0  0  0  0  0  0  0  0  0  0  0
  -12.5856   -3.3001  -21.4481 C   0  0  0  0  0  0  0  0  0  0  0  0
  -13.0841   -4.2542  -20.6493 F   0  0  0  0  0  0  0  0  0  0  0  0
  -13.4841   -2.3648  -21.9419 C   0  0  0  0  0  0  0  0  0  0  0  0
  -12.9762   -1.2937  -22.6433 C   0  0  0  0  0  0  0  0  0  0  0  0
  -11.6028   -1.1807  -22.8556 C   0  0  0  0  0  0  0  0  0  0  0  0
  -11.0980    0.0800  -23.4873 C   0  0  0  0  0  0  0  0  0  0  0  0
  -11.7640    1.1065  -23.5002 O   0  0  0  0  0  0  0  0  0  0  0  0
  -13.6157   -0.4985  -23.0093 H   0  0  0  0  0  0  0  0  0  0  0  0
  -14.5381   -2.4867  -21.7222 H   0  0  0  0  0  0  0  0  0  0  0  0
  -10.5949   -4.0114  -21.2481 H   0  0  0  0  0  0  0  0  0  0  0  0
   -9.3086   -1.8949  -24.7824 H   0  0  0  0  0  0  0  0  0  0  0  0
   -7.9961   -0.8997  -24.0909 H   0  0  0  0  0  0  0  0  0  0  0  0
  -10.1917    1.4031  -25.5788 H   0  0  0  0  0  0  0  0  0  0  0  0
   -8.5848    0.6984  -25.4976 H   0  0  0  0  0  0  0  0  0  0  0  0
   -7.7809    1.3723  -22.4630 H   0  0  0  0  0  0  0  0  0  0  0  0
   -7.3644    4.0659  -21.8182 H   0  0  0  0  0  0  0  0  0  0  0  0
   -9.3556    5.1538  -25.7130 H   0  0  0  0  0  0  0  0  0  0  0  0
   -9.6560    3.5511  -26.4128 H   0  0  0  0  0  0  0  0  0  0  0  0
  -11.7670    3.3596  -24.9960 H   0  0  0  0  0  0  0  0  0  0  0  0
  -11.4707    4.9805  -24.3592 H   0  0  0  0  0  0  0  0  0  0  0  0
  -11.8199    4.7643  -26.0884 H   0  0  0  0  0  0  0  0  0  0  0  0
  1  2  1  0
  2  3  1  0
  3  4  1  0
  4  5  2  0
  5  6  1  0
  6  7  2  0
  7  8  1  0
  8  9  1  0
  9 10  1  0
 11 10  1  6
 11 12  1  0
 12 13  2  0
 12 14  1  0
 14 15  1  0
 15 16  2  0
 16 17  1  0
 17 18  2  0
 18 19  1  0
 19 20  2  0
 20 21  1  0
 21 22  2  0
 22 23  1  0
 23 24  2  0
 23 25  1  0
 22 26  1  0
 21 27  1  0
 20 28  1  0
 18 29  1  0
 16 30  1  0
 14 31  1  0
 31 32  1  0
 32 33  1  0
 33 34  1  0
 33 35  1  0
 33 36  1  0
 32 37  1  1
 31 38  1  0
 31 39  1  0
 11 40  1  0
 40 41  2  0
 41 42  1  0
 42 43  1  0
 42 44  2  0
 44 45  1  0
 45 46  2  0
 46 47  1  0
 47 48  2  0
 45 49  1  0
 44 50  1  0
 41 51  1  0
 10 52  1  0
 10 53  1  0
  8 54  1  0
  8 55  1  0
  6 56  1  0
  5 57  1  0
  2 58  1  0
  2 59  1  0
  1 60  1  0
  1 61  1  0
  1 62  1  0
  7  3  1  0
 47  9  1  0
 32 11  1  0
 46 40  1  0
 24 15  1  0
 24 19  1  0
M  END
>  <cnnaffinities>  (58) 
[6.93121]

>  <score>  (58) 
6.93121

>  <index>  (58) 
60

>  <Smiles>  (58) 
C(C(n1nc(c(c1C(N1C([C@@]2(C(=O)N(c3c(nc(c4c(c(c(c(c34)[H])[H])[H])[H])[H])[H])C([C@@]2(C([H])([H])[H])[H])([H])[H])c2c(c(F)c(c(c2C1=O)[H])[H])[H])([H])[H])([H])[H])[H])[H])([H])[H])([H])([H])[H]

>  <h>  (58) 
<NA>

>  <Training>  (58) 
True

>  <Success>  (58) 
True

>  <enamine_searched>  (58) 
False

>  <enamine_id>  (58) 
nan

$$$$

     RDKit          3D

 44 47  0  0  0  0  0  0  0  0999 V2000
   -9.1609    0.2453  -21.0779 O   0  0  0  0  0  0  0  0  0  0  0  0
   -8.3733   -0.3143  -21.8124 C   0  0  0  0  0  0  0  0  0  0  0  0
   -7.4431   -1.4120  -21.2714 C   0  0  0  0  0  0  0  0  0  0  0  0
   -6.5708   -0.8345  -20.1757 C   0  0  0  0  0  0  0  0  0  0  0  0
   -6.8759   -1.0408  -18.8562 C   0  0  0  0  0  0  0  0  0  0  0  0
   -6.1850   -0.5352  -17.8002 N   0  0  0  0  0  0  0  0  0  0  0  0
   -5.1524    0.2230  -18.0679 C   0  0  0  0  0  0  0  0  0  0  0  0
   -4.7185    0.5332  -19.3832 C   0  0  0  0  0  0  0  0  0  0  0  0
   -3.5957    1.3639  -19.6252 C   0  0  0  0  0  0  0  0  0  0  0  0
   -3.2093    1.6613  -20.9031 C   0  0  0  0  0  0  0  0  0  0  0  0
   -3.9337    1.1317  -21.9946 C   0  0  0  0  0  0  0  0  0  0  0  0
   -5.0195    0.3173  -21.7860 C   0  0  0  0  0  0  0  0  0  0  0  0
   -5.4482   -0.0034  -20.4719 C   0  0  0  0  0  0  0  0  0  0  0  0
   -5.5549   -0.0876  -22.6371 H   0  0  0  0  0  0  0  0  0  0  0  0
   -3.6201    1.3733  -23.0057 H   0  0  0  0  0  0  0  0  0  0  0  0
   -2.3591    2.3128  -21.0841 H   0  0  0  0  0  0  0  0  0  0  0  0
   -3.0641    1.7810  -18.7737 H   0  0  0  0  0  0  0  0  0  0  0  0
   -4.6015    0.6280  -17.2166 H   0  0  0  0  0  0  0  0  0  0  0  0
   -7.7282   -1.6595  -18.5804 H   0  0  0  0  0  0  0  0  0  0  0  0
   -8.0717   -2.2025  -20.8444 H   0  0  0  0  0  0  0  0  0  0  0  0
   -6.8317   -1.8524  -22.0685 H   0  0  0  0  0  0  0  0  0  0  0  0
   -8.1948    0.0598  -23.1448 N   0  0  0  0  0  0  0  0  0  0  0  0
   -8.3975    1.4597  -23.5016 C   0  0  0  0  0  0  0  0  0  0  0  0
   -7.3915    1.8630  -24.5792 C   0  0  0  0  0  0  0  0  0  0  0  0
   -7.4467    0.9346  -25.7881 C   0  0  0  0  0  0  0  0  0  0  0  0
   -6.4902    1.3372  -26.9353 C   0  0  0  0  0  0  0  0  0  0  0  0
   -7.6903    1.5935  -27.8745 C   0  0  0  0  0  0  0  0  0  0  0  0
   -8.6533    1.1930  -26.7344 C   0  0  0  0  0  0  0  0  0  0  0  0
   -9.2660    0.3095  -26.9350 H   0  0  0  0  0  0  0  0  0  0  0  0
   -9.3270    1.9861  -26.3981 H   0  0  0  0  0  0  0  0  0  0  0  0
   -7.7897    2.6270  -28.2175 H   0  0  0  0  0  0  0  0  0  0  0  0
   -7.7287    0.9463  -28.7551 H   0  0  0  0  0  0  0  0  0  0  0  0
   -5.8740    2.2145  -26.7209 H   0  0  0  0  0  0  0  0  0  0  0  0
   -5.8145    0.5393  -27.2556 H   0  0  0  0  0  0  0  0  0  0  0  0
   -7.2946   -0.5167  -25.3457 C   0  0  0  0  0  0  0  0  0  0  0  0
   -8.2947   -0.8799  -24.2564 C   0  0  0  0  0  0  0  0  0  0  0  0
   -9.3136   -0.8849  -24.6874 H   0  0  0  0  0  0  0  0  0  0  0  0
   -8.1187   -1.8877  -23.8821 H   0  0  0  0  0  0  0  0  0  0  0  0
   -6.2759   -0.6834  -24.9740 H   0  0  0  0  0  0  0  0  0  0  0  0
   -7.4228   -1.1789  -26.2083 H   0  0  0  0  0  0  0  0  0  0  0  0
   -6.3773    1.8573  -24.1552 H   0  0  0  0  0  0  0  0  0  0  0  0
   -7.5777    2.8922  -24.9008 H   0  0  0  0  0  0  0  0  0  0  0  0
   -8.2532    2.0565  -22.6001 H   0  0  0  0  0  0  0  0  0  0  0  0
   -9.4254    1.6582  -23.8456 H   0  0  0  0  0  0  0  0  0  0  0  0
  1  2  2  0
  2  3  1  0
  3  4  1  0
  4  5  2  0
  5  6  1  0
  6  7  2  0
  7  8  1  0
  8  9  2  0
  9 10  1  0
 10 11  2  0
 11 12  1  0
 12 13  2  0
 12 14  1  0
 11 15  1  0
 10 16  1  0
  9 17  1  0
  7 18  1  0
  5 19  1  0
  3 20  1  0
  3 21  1  0
  2 22  1  0
 22 23  1  0
 23 24  1  0
 24 25  1  0
 25 26  1  0
 26 27  1  0
 27 28  1  0
 28 29  1  0
 28 30  1  0
 27 31  1  0
 27 32  1  0
 26 33  1  0
 26 34  1  0
 25 35  1  0
 35 36  1  0
 36 37  1  0
 36 38  1  0
 35 39  1  0
 35 40  1  0
 24 41  1  0
 24 42  1  0
 23 43  1  0
 23 44  1  0
 13  4  1  0
 36 22  1  0
 13  8  1  0
 28 25  1  0
M  END
>  <cnnaffinities>  (59) 
[5.15834, 5.15829, 5.1583, 5.15824, 5.63943, 5.6394, 5.20682, 5.20535, 5.20544, 5.20406, 4.9203, 5.63499, 5.29052, 5.29057, 5.2905, 5.29055, 4.99722, 4.99748, 4.99738]

>  <score>  (59) 
5.15834

>  <index>  (59) 
61

>  <Smiles>  (59) 
O=C(C(c1c(nc(c2c(c(c(c(c12)[H])[H])[H])[H])[H])[H])([H])[H])N1C(C(C2(C(C(C2([H])[H])([H])[H])([H])[H])C(C1([H])[H])([H])[H])([H])[H])([H])[H]

>  <h>  (59) 
<NA>

>  <Training>  (59) 
True

>  <Success>  (59) 
True

>  <enamine_searched>  (59) 
False

>  <enamine_id>  (59) 
nan

$$$$

     RDKit          3D

 44 47  0  0  0  0  0  0  0  0999 V2000
   -5.5879   -2.9792  -21.6729 O   0  0  0  0  0  0  0  0  0  0  0  0
   -6.7904   -2.8011  -21.7689 C   0  0  0  0  0  0  0  0  0  0  0  0
   -7.4216   -1.4815  -21.2559 C   0  0  0  0  0  0  0  0  0  0  0  0
   -6.5809   -0.8251  -20.1807 C   0  0  0  0  0  0  0  0  0  0  0  0
   -6.8728   -1.0421  -18.8613 C   0  0  0  0  0  0  0  0  0  0  0  0
   -6.1824   -0.5412  -17.8046 N   0  0  0  0  0  0  0  0  0  0  0  0
   -5.1536    0.2226  -18.0696 C   0  0  0  0  0  0  0  0  0  0  0  0
   -4.7177    0.5307  -19.3830 C   0  0  0  0  0  0  0  0  0  0  0  0
   -3.5878    1.3535  -19.6222 C   0  0  0  0  0  0  0  0  0  0  0  0
   -3.1879    1.6323  -20.8994 C   0  0  0  0  0  0  0  0  0  0  0  0
   -3.9027    1.0933  -21.9913 C   0  0  0  0  0  0  0  0  0  0  0  0
   -4.9966    0.2892  -21.7864 C   0  0  0  0  0  0  0  0  0  0  0  0
   -5.4441   -0.0107  -20.4749 C   0  0  0  0  0  0  0  0  0  0  0  0
   -5.5198   -0.1394  -22.6355 H   0  0  0  0  0  0  0  0  0  0  0  0
   -3.5778    1.3187  -23.0037 H   0  0  0  0  0  0  0  0  0  0  0  0
   -2.3279    2.2744  -21.0820 H   0  0  0  0  0  0  0  0  0  0  0  0
   -3.0585    1.7741  -18.7693 H   0  0  0  0  0  0  0  0  0  0  0  0
   -4.6029    0.6282  -17.2171 H   0  0  0  0  0  0  0  0  0  0  0  0
   -7.7198   -1.6693  -18.5824 H   0  0  0  0  0  0  0  0  0  0  0  0
   -7.5649   -0.7928  -22.1004 H   0  0  0  0  0  0  0  0  0  0  0  0
   -8.4239   -1.6895  -20.8498 H   0  0  0  0  0  0  0  0  0  0  0  0
   -7.6225   -3.7671  -22.3089 N   0  0  0  0  0  0  0  0  0  0  0  0
   -7.2652   -5.1758  -22.1416 C   0  0  0  0  0  0  0  0  0  0  0  0
   -7.5319   -5.9912  -23.3976 C   0  0  0  0  0  0  0  0  0  0  0  0
   -8.9708   -5.8166  -23.8818 C   0  0  0  0  0  0  0  0  0  0  0  0
   -9.2339   -6.6955  -25.1071 C   0  0  0  0  0  0  0  0  0  0  0  0
   -8.4871   -6.4589  -26.3928 C   0  0  0  0  0  0  0  0  0  0  0  0
   -9.9728   -6.2348  -26.3353 C   0  0  0  0  0  0  0  0  0  0  0  0
  -10.6140   -6.9385  -26.8652 H   0  0  0  0  0  0  0  0  0  0  0  0
  -10.3333   -5.2100  -26.3806 H   0  0  0  0  0  0  0  0  0  0  0  0
   -7.8549   -5.5741  -26.4444 H   0  0  0  0  0  0  0  0  0  0  0  0
   -8.1120   -7.3071  -26.9653 H   0  0  0  0  0  0  0  0  0  0  0  0
   -9.3725   -7.7514  -24.8710 H   0  0  0  0  0  0  0  0  0  0  0  0
   -9.2638   -4.3313  -24.0722 C   0  0  0  0  0  0  0  0  0  0  0  0
   -8.9710   -3.5277  -22.8077 C   0  0  0  0  0  0  0  0  0  0  0  0
   -9.7218   -3.7774  -22.0412 H   0  0  0  0  0  0  0  0  0  0  0  0
   -9.0769   -2.4653  -23.0287 H   0  0  0  0  0  0  0  0  0  0  0  0
  -10.3134   -4.1855  -24.3438 H   0  0  0  0  0  0  0  0  0  0  0  0
   -8.6718   -3.9340  -24.9028 H   0  0  0  0  0  0  0  0  0  0  0  0
   -9.6181   -6.1641  -23.0741 H   0  0  0  0  0  0  0  0  0  0  0  0
   -6.8444   -5.6851  -24.1924 H   0  0  0  0  0  0  0  0  0  0  0  0
   -7.3275   -7.0503  -23.1990 H   0  0  0  0  0  0  0  0  0  0  0  0
   -7.8424   -5.6143  -21.3120 H   0  0  0  0  0  0  0  0  0  0  0  0
   -6.2123   -5.2244  -21.8641 H   0  0  0  0  0  0  0  0  0  0  0  0
  1  2  2  0
  2  3  1  0
  3  4  1  0
  4  5  2  0
  5  6  1  0
  6  7  2  0
  7  8  1  0
  8  9  2  0
  9 10  1  0
 10 11  2  0
 11 12  1  0
 12 13  2  0
 12 14  1  0
 11 15  1  0
 10 16  1  0
  9 17  1  0
  7 18  1  0
  5 19  1  0
  3 20  1  0
  3 21  1  0
  2 22  1  0
 22 23  1  0
 23 24  1  0
 24 25  1  0
 25 26  1  0
 26 27  1  0
 27 28  1  0
 28 29  1  0
 28 30  1  0
 27 31  1  0
 27 32  1  0
 26 33  1  0
 25 34  1  0
 34 35  1  0
 35 36  1  0
 35 37  1  0
 34 38  1  0
 34 39  1  0
 25 40  1  0
 24 41  1  0
 24 42  1  0
 23 43  1  0
 23 44  1  0
 13  4  1  0
 35 22  1  0
 13  8  1  0
 28 26  1  0
M  END
>  <cnnaffinities>  (60) 
[5.20767, 5.13951, 5.26891]

>  <score>  (60) 
5.20767

>  <index>  (60) 
62

>  <Smiles>  (60) 
O=C(C(c1c(nc(c2c(c(c(c(c12)[H])[H])[H])[H])[H])[H])([H])[H])N1C(C(C(C2(C(C2([H])[H])([H])[H])[H])(C(C1([H])[H])([H])[H])[H])([H])[H])([H])[H]

>  <h>  (60) 
<NA>

>  <Training>  (60) 
True

>  <Success>  (60) 
True

>  <enamine_searched>  (60) 
False

>  <enamine_id>  (60) 
nan

$$$$

     RDKit          3D

 57 61  0  0  0  0  0  0  0  0999 V2000
  -14.7413   -0.6861  -22.1884 C   0  0  0  0  0  0  0  0  0  0  0  0
  -13.8581   -1.7152  -21.6762 N   0  0  0  0  0  0  0  0  0  0  0  0
  -13.2564   -2.5973  -22.5319 C   0  0  0  0  0  0  0  0  0  0  0  0
  -13.4729   -2.5930  -23.7287 O   0  0  0  0  0  0  0  0  0  0  0  0
  -12.4203   -3.6825  -21.8409 C   0  0  0  0  0  0  0  0  0  0  0  0
  -11.0427   -3.7580  -22.3011 N   0  0  0  0  0  0  0  0  0  0  0  0
   -9.9462   -3.1799  -21.5368 C   0  0  0  0  0  0  0  0  0  0  0  0
   -8.7331   -2.7430  -22.4051 C   0  0  2  0  0  0  0  0  0  0  0  0
   -7.5685   -2.5640  -21.4183 C   0  0  0  0  0  0  0  0  0  0  0  0
   -6.9557   -3.4424  -20.8449 O   0  0  0  0  0  0  0  0  0  0  0  0
   -7.3464   -1.2196  -21.2285 N   0  0  0  0  0  0  0  0  0  0  0  0
   -6.5311   -0.7695  -20.1701 C   0  0  0  0  0  0  0  0  0  0  0  0
   -6.8172   -1.0897  -18.8697 C   0  0  0  0  0  0  0  0  0  0  0  0
   -6.1424   -0.5792  -17.8120 N   0  0  0  0  0  0  0  0  0  0  0  0
   -5.1402    0.2296  -18.0566 C   0  0  0  0  0  0  0  0  0  0  0  0
   -4.6952    0.5790  -19.3661 C   0  0  0  0  0  0  0  0  0  0  0  0
   -3.5693    1.4083  -19.6117 C   0  0  0  0  0  0  0  0  0  0  0  0
   -3.1908    1.7030  -20.8936 C   0  0  0  0  0  0  0  0  0  0  0  0
   -3.9048    1.1776  -21.9935 C   0  0  0  0  0  0  0  0  0  0  0  0
   -4.9891    0.3640  -21.7837 C   0  0  0  0  0  0  0  0  0  0  0  0
   -5.4126    0.0633  -20.4632 C   0  0  0  0  0  0  0  0  0  0  0  0
   -5.5259   -0.0741  -22.6185 H   0  0  0  0  0  0  0  0  0  0  0  0
   -3.5980    1.4198  -23.0068 H   0  0  0  0  0  0  0  0  0  0  0  0
   -2.3371    2.3490  -21.0785 H   0  0  0  0  0  0  0  0  0  0  0  0
   -3.0214    1.8103  -18.7657 H   0  0  0  0  0  0  0  0  0  0  0  0
   -4.6204    0.6386  -17.1903 H   0  0  0  0  0  0  0  0  0  0  0  0
   -7.6312   -1.7754  -18.6391 H   0  0  0  0  0  0  0  0  0  0  0  0
   -8.3447   -0.3789  -21.8718 C   0  0  0  0  0  0  0  0  0  0  0  0
   -8.8658   -1.2937  -22.9903 C   0  0  2  0  0  0  0  0  0  0  0  0
  -10.2292   -0.8931  -23.5446 C   0  0  0  0  0  0  0  0  0  0  0  0
  -11.2114   -0.7516  -22.5329 O   0  0  0  0  0  0  0  0  0  0  0  0
  -11.3587    0.1811  -22.3527 H   0  0  0  0  0  0  0  0  0  0  0  0
  -10.5806   -1.6743  -24.2263 H   0  0  0  0  0  0  0  0  0  0  0  0
  -10.1241    0.0449  -24.1048 H   0  0  0  0  0  0  0  0  0  0  0  0
   -8.1562   -1.2409  -23.8306 H   0  0  0  0  0  0  0  0  0  0  0  0
   -7.8892    0.5433  -22.2452 H   0  0  0  0  0  0  0  0  0  0  0  0
   -9.1408   -0.1038  -21.1573 H   0  0  0  0  0  0  0  0  0  0  0  0
   -8.4213   -3.8126  -23.4376 C   0  0  0  0  0  0  0  0  0  0  0  0
   -7.1347   -3.9587  -23.9907 C   0  0  0  0  0  0  0  0  0  0  0  0
   -6.8956   -4.9229  -24.9599 C   0  0  0  0  0  0  0  0  0  0  0  0
   -5.3092   -5.0999  -25.6583 Cl  0  0  0  0  0  0  0  0  0  0  0  0
   -7.9022   -5.7789  -25.4082 C   0  0  0  0  0  0  0  0  0  0  0  0
   -9.1622   -5.6471  -24.8594 C   0  0  0  0  0  0  0  0  0  0  0  0
   -9.4154   -4.6862  -23.8781 C   0  0  0  0  0  0  0  0  0  0  0  0
  -10.7931   -4.6488  -23.3068 C   0  0  0  0  0  0  0  0  0  0  0  0
  -11.6528   -5.3998  -23.7188 O   0  0  0  0  0  0  0  0  0  0  0  0
   -9.9882   -6.2812  -25.1685 H   0  0  0  0  0  0  0  0  0  0  0  0
   -7.6897   -6.5367  -26.1588 H   0  0  0  0  0  0  0  0  0  0  0  0
   -6.2990   -3.3558  -23.6466 H   0  0  0  0  0  0  0  0  0  0  0  0
   -9.5366   -3.9016  -20.8231 H   0  0  0  0  0  0  0  0  0  0  0  0
  -10.3317   -2.3051  -21.0133 H   0  0  0  0  0  0  0  0  0  0  0  0
  -12.8996   -4.6371  -22.1009 H   0  0  0  0  0  0  0  0  0  0  0  0
  -12.4772   -3.5595  -20.7566 H   0  0  0  0  0  0  0  0  0  0  0  0
  -13.3567   -1.5146  -20.8276 H   0  0  0  0  0  0  0  0  0  0  0  0
  -15.4465   -0.4028  -21.4060 H   0  0  0  0  0  0  0  0  0  0  0  0
  -14.2092    0.2036  -22.5474 H   0  0  0  0  0  0  0  0  0  0  0  0
  -15.3070   -1.1080  -23.0173 H   0  0  0  0  0  0  0  0  0  0  0  0
  1  2  1  0
  2  3  1  0
  3  4  2  0
  3  5  1  0
  5  6  1  0
  6  7  1  0
  8  7  1  1
  8  9  1  0
  9 10  2  0
  9 11  1  0
 11 12  1  0
 12 13  2  0
 13 14  1  0
 14 15  2  0
 15 16  1  0
 16 17  2  0
 17 18  1  0
 18 19  2  0
 19 20  1  0
 20 21  2  0
 20 22  1  0
 19 23  1  0
 18 24  1  0
 17 25  1  0
 15 26  1  0
 13 27  1  0
 11 28  1  0
 28 29  1  0
 29 30  1  0
 30 31  1  0
 31 32  1  0
 30 33  1  0
 30 34  1  0
 29 35  1  6
 28 36  1  0
 28 37  1  0
  8 38  1  0
 38 39  2  0
 39 40  1  0
 40 41  1  0
 40 42  2  0
 42 43  1  0
 43 44  2  0
 44 45  1  0
 45 46  2  0
 43 47  1  0
 42 48  1  0
 39 49  1  0
  7 50  1  0
  7 51  1  0
  5 52  1  0
  5 53  1  0
  2 54  1  0
  1 55  1  0
  1 56  1  0
  1 57  1  0
 45  6  1  0
 29  8  1  0
 44 38  1  0
 21 12  1  0
 21 16  1  0
M  END
>  <cnnaffinities>  (61) 
[6.19918]

>  <score>  (61) 
6.19918

>  <index>  (61) 
63

>  <Smiles>  (61) 
C(N(C(=O)C(N1C([C@@]2(C(=O)N(c3c(nc(c4c(c(c(c(c34)[H])[H])[H])[H])[H])[H])C([C@@]2(C(O[H])([H])[H])[H])([H])[H])c2c(c(Cl)c(c(c2C1=O)[H])[H])[H])([H])[H])([H])[H])[H])([H])([H])[H]

>  <h>  (61) 
<NA>

>  <Training>  (61) 
True

>  <Success>  (61) 
True

>  <enamine_searched>  (61) 
False

>  <enamine_id>  (61) 
nan

$$$$

     RDKit          3D

 55 60  0  0  0  0  0  0  0  0999 V2000
  -10.3625   -0.9820  -23.3766 C   0  0  0  0  0  0  0  0  0  0  0  0
   -8.9420   -1.3512  -22.9597 C   0  0  1  0  0  0  0  0  0  0  0  0
   -8.3506   -0.4219  -21.8883 C   0  0  0  0  0  0  0  0  0  0  0  0
   -7.3539   -1.2621  -21.2435 N   0  0  0  0  0  0  0  0  0  0  0  0
   -6.5429   -0.8039  -20.1857 C   0  0  0  0  0  0  0  0  0  0  0  0
   -6.8442   -1.1061  -18.8833 C   0  0  0  0  0  0  0  0  0  0  0  0
   -6.1725   -0.5911  -17.8253 N   0  0  0  0  0  0  0  0  0  0  0  0
   -5.1653    0.2114  -18.0671 C   0  0  0  0  0  0  0  0  0  0  0  0
   -4.7129    0.5567  -19.3768 C   0  0  0  0  0  0  0  0  0  0  0  0
   -3.5851    1.3858  -19.6276 C   0  0  0  0  0  0  0  0  0  0  0  0
   -3.2101    1.6715  -20.9132 C   0  0  0  0  0  0  0  0  0  0  0  0
   -3.9224    1.1396  -22.0121 C   0  0  0  0  0  0  0  0  0  0  0  0
   -5.0028    0.3199  -21.7955 C   0  0  0  0  0  0  0  0  0  0  0  0
   -5.4244    0.0306  -20.4732 C   0  0  0  0  0  0  0  0  0  0  0  0
   -5.5437   -0.1316  -22.6198 H   0  0  0  0  0  0  0  0  0  0  0  0
   -3.6162    1.3733  -23.0275 H   0  0  0  0  0  0  0  0  0  0  0  0
   -2.3544    2.3152  -21.1017 H   0  0  0  0  0  0  0  0  0  0  0  0
   -3.0351    1.7867  -18.7803 H   0  0  0  0  0  0  0  0  0  0  0  0
   -4.6471    0.6243  -17.2004 H   0  0  0  0  0  0  0  0  0  0  0  0
   -7.6658   -1.7820  -18.6508 H   0  0  0  0  0  0  0  0  0  0  0  0
   -7.5820   -2.6065  -21.4139 C   0  0  0  0  0  0  0  0  0  0  0  0
   -6.9277   -3.4786  -20.8734 O   0  0  0  0  0  0  0  0  0  0  0  0
   -8.7729   -2.7870  -22.3575 C   0  0  1  0  0  0  0  0  0  0  0  0
   -9.9885   -3.1610  -21.4685 C   0  0  0  0  0  0  0  0  0  0  0  0
  -11.1188   -3.6985  -22.2156 N   0  0  0  0  0  0  0  0  0  0  0  0
  -12.4979   -3.6200  -21.7268 C   0  0  0  0  0  0  0  0  0  0  0  0
  -13.3383   -2.5535  -22.3693 C   0  0  0  0  0  0  0  0  0  0  0  0
  -13.9238   -2.6928  -23.5946 N   0  0  0  0  0  0  0  0  0  0  0  0
  -14.6468   -1.6003  -23.6932 C   0  0  0  0  0  0  0  0  0  0  0  0
  -14.4974   -0.8342  -22.6008 N   0  0  0  0  0  0  0  0  0  0  0  0
  -13.6592   -1.4430  -21.7355 N   0  0  0  0  0  0  0  0  0  0  0  0
  -14.9572    0.0257  -22.3196 H   0  0  0  0  0  0  0  0  0  0  0  0
  -15.2770   -1.3284  -24.5242 H   0  0  0  0  0  0  0  0  0  0  0  0
  -12.5429   -3.4524  -20.6499 H   0  0  0  0  0  0  0  0  0  0  0  0
  -12.9796   -4.5741  -21.9633 H   0  0  0  0  0  0  0  0  0  0  0  0
  -10.9086   -4.6096  -23.2132 C   0  0  0  0  0  0  0  0  0  0  0  0
  -11.8190   -5.3000  -23.6304 O   0  0  0  0  0  0  0  0  0  0  0  0
   -9.5312   -4.7144  -23.7764 C   0  0  0  0  0  0  0  0  0  0  0  0
   -9.3233   -5.6894  -24.7449 C   0  0  0  0  0  0  0  0  0  0  0  0
   -8.0878   -5.8646  -25.3298 C   0  0  0  0  0  0  0  0  0  0  0  0
   -7.0508   -5.0375  -24.9165 C   0  0  0  0  0  0  0  0  0  0  0  0
   -5.8443   -5.1988  -25.4852 F   0  0  0  0  0  0  0  0  0  0  0  0
   -7.2243   -4.0593  -23.9529 C   0  0  0  0  0  0  0  0  0  0  0  0
   -8.4954   -3.8737  -23.3741 C   0  0  0  0  0  0  0  0  0  0  0  0
   -6.3545   -3.4837  -23.6486 H   0  0  0  0  0  0  0  0  0  0  0  0
   -7.9216   -6.6278  -26.0806 H   0  0  0  0  0  0  0  0  0  0  0  0
  -10.1683   -6.3087  -25.0125 H   0  0  0  0  0  0  0  0  0  0  0  0
   -9.6430   -3.8906  -20.7372 H   0  0  0  0  0  0  0  0  0  0  0  0
  -10.3014   -2.2770  -20.8984 H   0  0  0  0  0  0  0  0  0  0  0  0
   -7.8999    0.4885  -22.2966 H   0  0  0  0  0  0  0  0  0  0  0  0
   -9.1133   -0.1038  -21.1607 H   0  0  0  0  0  0  0  0  0  0  0  0
   -8.2799   -1.3176  -23.8340 H   0  0  0  0  0  0  0  0  0  0  0  0
  -11.0349   -0.9283  -22.5132 H   0  0  0  0  0  0  0  0  0  0  0  0
  -10.3913   -0.0065  -23.8697 H   0  0  0  0  0  0  0  0  0  0  0  0
  -10.7656   -1.7382  -24.0585 H   0  0  0  0  0  0  0  0  0  0  0  0
  1  2  1  0
  2  3  1  0
  3  4  1  0
  4  5  1  0
  5  6  2  0
  6  7  1  0
  7  8  2  0
  8  9  1  0
  9 10  2  0
 10 11  1  0
 11 12  2  0
 12 13  1  0
 13 14  2  0
 13 15  1  0
 12 16  1  0
 11 17  1  0
 10 18  1  0
  8 19  1  0
  6 20  1  0
  4 21  1  0
 21 22  2  0
 21 23  1  0
 23 24  1  1
 24 25  1  0
 25 26  1  0
 26 27  1  0
 27 28  1  0
 28 29  2  0
 29 30  1  0
 30 31  1  0
 30 32  1  0
 29 33  1  0
 26 34  1  0
 26 35  1  0
 25 36  1  0
 36 37  2  0
 36 38  1  0
 38 39  2  0
 39 40  1  0
 40 41  2  0
 41 42  1  0
 41 43  1  0
 43 44  2  0
 43 45  1  0
 40 46  1  0
 39 47  1  0
 24 48  1  0
 24 49  1  0
  3 50  1  0
  3 51  1  0
  2 52  1  6
  1 53  1  0
  1 54  1  0
  1 55  1  0
 23  2  1  0
 31 27  2  0
 44 38  1  0
 14  5  1  0
 44 23  1  0
 14  9  1  0
M  END
>  <cnnaffinities>  (62) 
[6.6658]

>  <score>  (62) 
6.6658

>  <index>  (62) 
64

>  <Smiles>  (62) 
C([C@]1(C(N(c2c(nc(c3c(c(c(c(c23)[H])[H])[H])[H])[H])[H])C(=O)[C@]21C(N(C(c1nc(n(n1)[H])[H])([H])[H])C(=O)c1c(c(c(F)c(c21)[H])[H])[H])([H])[H])([H])[H])[H])([H])([H])[H]

>  <h>  (62) 
<NA>

>  <Training>  (62) 
True

>  <Success>  (62) 
True

>  <enamine_searched>  (62) 
False

>  <enamine_id>  (62) 
nan

$$$$

     RDKit          3D

 55 60  0  0  0  0  0  0  0  0999 V2000
  -10.2369   -2.9727  -22.0716 C   0  0  0  0  0  0  0  0  0  0  0  0
   -9.1664   -2.0172  -22.6273 C   0  0  1  0  0  0  0  0  0  0  0  0
   -8.6945   -1.0410  -21.5291 C   0  0  0  0  0  0  0  0  0  0  0  0
   -7.3462   -1.4505  -21.2064 N   0  0  0  0  0  0  0  0  0  0  0  0
   -6.5684   -0.8534  -20.1882 C   0  0  0  0  0  0  0  0  0  0  0  0
   -6.9018   -1.0541  -18.8725 C   0  0  0  0  0  0  0  0  0  0  0  0
   -6.2147   -0.5429  -17.8253 N   0  0  0  0  0  0  0  0  0  0  0  0
   -5.1742    0.2062  -18.0955 C   0  0  0  0  0  0  0  0  0  0  0  0
   -4.7303    0.5096  -19.4140 C   0  0  0  0  0  0  0  0  0  0  0  0
   -3.6079    1.3480  -19.6424 C   0  0  0  0  0  0  0  0  0  0  0  0
   -3.2266    1.6639  -20.9165 C   0  0  0  0  0  0  0  0  0  0  0  0
   -3.9545    1.1602  -22.0200 C   0  0  0  0  0  0  0  0  0  0  0  0
   -5.0387    0.3398  -21.8287 C   0  0  0  0  0  0  0  0  0  0  0  0
   -5.4473   -0.0200  -20.5081 C   0  0  0  0  0  0  0  0  0  0  0  0
   -5.5927   -0.0361  -22.6896 H   0  0  0  0  0  0  0  0  0  0  0  0
   -3.6518    1.4310  -23.0276 H   0  0  0  0  0  0  0  0  0  0  0  0
   -2.3730    2.3148  -21.0862 H   0  0  0  0  0  0  0  0  0  0  0  0
   -3.0839    1.7502  -18.7794 H   0  0  0  0  0  0  0  0  0  0  0  0
   -4.6247    0.6161  -17.2484 H   0  0  0  0  0  0  0  0  0  0  0  0
   -7.7588   -1.6797  -18.6219 H   0  0  0  0  0  0  0  0  0  0  0  0
   -6.8243   -2.3977  -22.0496 C   0  0  0  0  0  0  0  0  0  0  0  0
   -5.7247   -2.9005  -21.9206 O   0  0  0  0  0  0  0  0  0  0  0  0
   -7.8618   -2.6813  -23.1566 C   0  0  1  0  0  0  0  0  0  0  0  0
   -7.9672   -4.1941  -23.3496 C   0  0  0  0  0  0  0  0  0  0  0  0
   -6.7081   -4.6774  -23.8827 N   0  0  0  0  0  0  0  0  0  0  0  0
   -6.2307   -5.9587  -23.4046 C   0  0  0  0  0  0  0  0  0  0  0  0
   -7.0583   -7.0656  -23.9868 C   0  0  0  0  0  0  0  0  0  0  0  0
   -7.0194   -7.5624  -25.2439 C   0  0  0  0  0  0  0  0  0  0  0  0
   -8.1868   -8.2312  -25.4581 O   0  0  0  0  0  0  0  0  0  0  0  0
   -8.8502   -8.1479  -24.2860 C   0  0  0  0  0  0  0  0  0  0  0  0
   -8.2321   -7.4890  -23.3568 N   0  0  0  0  0  0  0  0  0  0  0  0
   -9.7981   -8.6748  -24.2484 H   0  0  0  0  0  0  0  0  0  0  0  0
   -6.2694   -7.6171  -26.0282 H   0  0  0  0  0  0  0  0  0  0  0  0
   -5.1778   -6.0308  -23.6872 H   0  0  0  0  0  0  0  0  0  0  0  0
   -6.2962   -5.9375  -22.3101 H   0  0  0  0  0  0  0  0  0  0  0  0
   -6.2515   -4.2332  -25.0926 C   0  0  0  0  0  0  0  0  0  0  0  0
   -5.5459   -4.9105  -25.8337 O   0  0  0  0  0  0  0  0  0  0  0  0
   -6.6381   -2.8312  -25.3982 C   0  0  0  0  0  0  0  0  0  0  0  0
   -6.1762   -2.2818  -26.5910 C   0  0  0  0  0  0  0  0  0  0  0  0
   -6.3972   -0.9456  -26.8586 C   0  0  0  0  0  0  0  0  0  0  0  0
   -7.0774   -0.1825  -25.9150 C   0  0  0  0  0  0  0  0  0  0  0  0
   -7.2696    1.1269  -26.1638 F   0  0  0  0  0  0  0  0  0  0  0  0
   -7.5599   -0.7157  -24.7358 C   0  0  0  0  0  0  0  0  0  0  0  0
   -7.3684   -2.0767  -24.4708 C   0  0  0  0  0  0  0  0  0  0  0  0
   -8.0768   -0.0562  -24.0455 H   0  0  0  0  0  0  0  0  0  0  0  0
   -6.0371   -0.4715  -27.7606 H   0  0  0  0  0  0  0  0  0  0  0  0
   -5.6246   -2.9376  -27.2605 H   0  0  0  0  0  0  0  0  0  0  0  0
   -8.7956   -4.4251  -24.0386 H   0  0  0  0  0  0  0  0  0  0  0  0
   -8.1488   -4.6973  -22.3951 H   0  0  0  0  0  0  0  0  0  0  0  0
   -9.3363   -1.1243  -20.6572 H   0  0  0  0  0  0  0  0  0  0  0  0
   -8.7088    0.0066  -21.8550 H   0  0  0  0  0  0  0  0  0  0  0  0
   -9.6408   -1.4759  -23.4545 H   0  0  0  0  0  0  0  0  0  0  0  0
  -11.0898   -2.3977  -21.6923 H   0  0  0  0  0  0  0  0  0  0  0  0
   -9.8492   -3.5778  -21.2434 H   0  0  0  0  0  0  0  0  0  0  0  0
  -10.6179   -3.6483  -22.8438 H   0  0  0  0  0  0  0  0  0  0  0  0
  1  2  1  0
  2  3  1  0
  3  4  1  0
  4  5  1  0
  5  6  2  0
  6  7  1  0
  7  8  2  0
  8  9  1  0
  9 10  2  0
 10 11  1  0
 11 12  2  0
 12 13  1  0
 13 14  2  0
 13 15  1  0
 12 16  1  0
 11 17  1  0
 10 18  1  0
  8 19  1  0
  6 20  1  0
  4 21  1  0
 21 22  2  0
 21 23  1  0
 23 24  1  6
 24 25  1  0
 25 26  1  0
 26 27  1  0
 27 28  2  0
 28 29  1  0
 29 30  1  0
 30 31  2  0
 30 32  1  0
 28 33  1  0
 26 34  1  0
 26 35  1  0
 25 36  1  0
 36 37  2  0
 36 38  1  0
 38 39  2  0
 39 40  1  0
 40 41  2  0
 41 42  1  0
 41 43  1  0
 43 44  2  0
 43 45  1  0
 40 46  1  0
 39 47  1  0
 24 48  1  0
 24 49  1  0
  3 50  1  0
  3 51  1  0
  2 52  1  6
  1 53  1  0
  1 54  1  0
  1 55  1  0
 23  2  1  0
 31 27  1  0
 44 38  1  0
 14  5  1  0
 44 23  1  0
 14  9  1  0
M  END
>  <cnnaffinities>  (63) 
[5.92207, 6.60581]

>  <score>  (63) 
5.92207

>  <index>  (63) 
65

>  <Smiles>  (63) 
C([C@]1(C(N(c2c(nc(c3c(c(c(c(c23)[H])[H])[H])[H])[H])[H])C(=O)[C@]21C(N(C(c1c(oc(n1)[H])[H])([H])[H])C(=O)c1c(c(c(F)c(c21)[H])[H])[H])([H])[H])([H])[H])[H])([H])([H])[H]

>  <h>  (63) 
<NA>

>  <Training>  (63) 
True

>  <Success>  (63) 
True

>  <enamine_searched>  (63) 
False

>  <enamine_id>  (63) 
nan

$$$$

     RDKit          3D

 44 47  0  0  0  0  0  0  0  0999 V2000
   -6.4169   -0.9302  -25.8392 C   0  0  0  0  0  0  0  0  0  0  0  0
   -7.5935   -0.9850  -24.8796 C   0  0  0  0  0  0  0  0  0  0  0  0
   -7.7863   -2.3415  -24.1737 C   0  0  1  0  0  0  0  0  0  0  0  0
   -8.1564   -3.4344  -25.1575 C   0  0  0  0  0  0  0  0  0  0  0  0
   -9.3196   -3.4171  -25.9958 C   0  0  0  0  0  0  0  0  0  0  0  0
   -9.4353   -4.5442  -26.7537 C   0  0  0  0  0  0  0  0  0  0  0  0
   -8.1386   -5.6469  -26.4695 S   0  0  0  0  0  0  0  0  0  0  0  0
   -7.4407   -4.5848  -25.2929 C   0  0  0  0  0  0  0  0  0  0  0  0
   -6.2279   -4.9031  -24.4755 C   0  0  0  0  0  0  0  0  0  0  0  0
   -5.6313   -3.6043  -23.9422 C   0  0  0  0  0  0  0  0  0  0  0  0
   -6.6514   -2.7439  -23.3293 N   0  0  0  0  0  0  0  0  0  0  0  0
   -6.6579   -2.6418  -21.9473 C   0  0  0  0  0  0  0  0  0  0  0  0
   -6.0549   -3.4318  -21.2439 O   0  0  0  0  0  0  0  0  0  0  0  0
   -7.3998   -1.4594  -21.2829 C   0  0  0  0  0  0  0  0  0  0  0  0
   -6.5806   -0.8245  -20.1779 C   0  0  0  0  0  0  0  0  0  0  0  0
   -6.8720   -1.0453  -18.8552 C   0  0  0  0  0  0  0  0  0  0  0  0
   -6.1820   -0.5406  -17.7976 N   0  0  0  0  0  0  0  0  0  0  0  0
   -5.1546    0.2252  -18.0646 C   0  0  0  0  0  0  0  0  0  0  0  0
   -4.7191    0.5332  -19.3827 C   0  0  0  0  0  0  0  0  0  0  0  0
   -3.5882    1.3561  -19.6233 C   0  0  0  0  0  0  0  0  0  0  0  0
   -3.1913    1.6378  -20.9022 C   0  0  0  0  0  0  0  0  0  0  0  0
   -3.9104    1.1018  -21.9933 C   0  0  0  0  0  0  0  0  0  0  0  0
   -5.0046    0.2978  -21.7847 C   0  0  0  0  0  0  0  0  0  0  0  0
   -5.4472   -0.0050  -20.4703 C   0  0  0  0  0  0  0  0  0  0  0  0
   -5.5341   -0.1128  -22.6388 H   0  0  0  0  0  0  0  0  0  0  0  0
   -3.5901    1.3300  -23.0042 H   0  0  0  0  0  0  0  0  0  0  0  0
   -2.3336    2.2780  -21.0871 H   0  0  0  0  0  0  0  0  0  0  0  0
   -3.0544    1.7749  -18.7740 H   0  0  0  0  0  0  0  0  0  0  0  0
   -4.6001    0.6288  -17.2160 H   0  0  0  0  0  0  0  0  0  0  0  0
   -7.7207   -1.6703  -18.5833 H   0  0  0  0  0  0  0  0  0  0  0  0
   -7.7064   -0.6955  -22.0080 H   0  0  0  0  0  0  0  0  0  0  0  0
   -8.3156   -1.8669  -20.8397 H   0  0  0  0  0  0  0  0  0  0  0  0
   -5.1542   -3.0725  -24.7740 H   0  0  0  0  0  0  0  0  0  0  0  0
   -4.8621   -3.8124  -23.1980 H   0  0  0  0  0  0  0  0  0  0  0  0
   -5.4879   -5.4690  -25.0533 H   0  0  0  0  0  0  0  0  0  0  0  0
   -6.5096   -5.5386  -23.6283 H   0  0  0  0  0  0  0  0  0  0  0  0
  -10.2127   -4.7948  -27.4628 H   0  0  0  0  0  0  0  0  0  0  0  0
  -10.0453   -2.6061  -26.0110 H   0  0  0  0  0  0  0  0  0  0  0  0
   -8.6508   -2.2306  -23.5045 H   0  0  0  0  0  0  0  0  0  0  0  0
   -7.4892   -0.1979  -24.1274 H   0  0  0  0  0  0  0  0  0  0  0  0
   -8.5174   -0.7644  -25.4242 H   0  0  0  0  0  0  0  0  0  0  0  0
   -5.4669   -0.9271  -25.2995 H   0  0  0  0  0  0  0  0  0  0  0  0
   -6.4072   -1.7856  -26.5198 H   0  0  0  0  0  0  0  0  0  0  0  0
   -6.4526   -0.0206  -26.4434 H   0  0  0  0  0  0  0  0  0  0  0  0
  1  2  1  0
  2  3  1  0
  3  4  1  0
  4  5  1  0
  5  6  2  0
  6  7  1  0
  7  8  1  0
  8  9  1  0
  9 10  1  0
 10 11  1  0
 11 12  1  0
 12 13  2  0
 12 14  1  0
 14 15  1  0
 15 16  2  0
 16 17  1  0
 17 18  2  0
 18 19  1  0
 19 20  2  0
 20 21  1  0
 21 22  2  0
 22 23  1  0
 23 24  2  0
 23 25  1  0
 22 26  1  0
 21 27  1  0
 20 28  1  0
 18 29  1  0
 16 30  1  0
 14 31  1  0
 14 32  1  0
 10 33  1  0
 10 34  1  0
  9 35  1  0
  9 36  1  0
  6 37  1  0
  5 38  1  0
  3 39  1  1
  2 40  1  0
  2 41  1  0
  1 42  1  0
  1 43  1  0
  1 44  1  0
 11  3  1  0
 24 15  1  0
  8  4  2  0
 24 19  1  0
M  END
>  <cnnaffinities>  (64) 
[5.52569, 5.48503]

>  <score>  (64) 
5.52569

>  <index>  (64) 
66

>  <Smiles>  (64) 
C(C([C@]1(c2c(c(sc2C(C(N1C(=O)C(c1c(nc(c2c(c(c(c(c12)[H])[H])[H])[H])[H])[H])([H])[H])([H])[H])([H])[H])[H])[H])[H])([H])[H])([H])([H])[H]

>  <h>  (64) 
<NA>

>  <Training>  (64) 
True

>  <Success>  (64) 
True

>  <enamine_searched>  (64) 
False

>  <enamine_id>  (64) 
nan

$$$$

     RDKit          3D

 58 63  0  0  0  0  0  0  0  0999 V2000
  -15.0587    0.1688  -22.9472 C   0  0  0  0  0  0  0  0  0  0  0  0
  -14.4526   -1.1572  -22.7845 C   0  0  0  0  0  0  0  0  0  0  0  0
  -13.7159   -1.6334  -21.6937 C   0  0  0  0  0  0  0  0  0  0  0  0
  -13.3048   -2.8549  -22.1183 C   0  0  0  0  0  0  0  0  0  0  0  0
  -12.3938   -3.8957  -21.5951 C   0  0  0  0  0  0  0  0  0  0  0  0
  -11.0555   -3.8765  -22.1660 N   0  0  0  0  0  0  0  0  0  0  0  0
   -9.9394   -3.3605  -21.4149 C   0  0  0  0  0  0  0  0  0  0  0  0
   -8.7544   -2.9298  -22.2947 C   0  0  2  0  0  0  0  0  0  0  0  0
   -7.5533   -2.7084  -21.3705 C   0  0  0  0  0  0  0  0  0  0  0  0
   -6.8646   -3.5550  -20.8351 O   0  0  0  0  0  0  0  0  0  0  0  0
   -7.3542   -1.3557  -21.2310 N   0  0  0  0  0  0  0  0  0  0  0  0
   -6.5606   -0.8502  -20.1810 C   0  0  0  0  0  0  0  0  0  0  0  0
   -6.8837   -1.0914  -18.8692 C   0  0  0  0  0  0  0  0  0  0  0  0
   -6.2078   -0.5636  -17.8198 N   0  0  0  0  0  0  0  0  0  0  0  0
   -5.1816    0.2054  -18.0846 C   0  0  0  0  0  0  0  0  0  0  0  0
   -4.7314    0.5082  -19.4014 C   0  0  0  0  0  0  0  0  0  0  0  0
   -3.6078    1.3359  -19.6407 C   0  0  0  0  0  0  0  0  0  0  0  0
   -3.2165    1.6183  -20.9200 C   0  0  0  0  0  0  0  0  0  0  0  0
   -3.9266    1.0883  -22.0208 C   0  0  0  0  0  0  0  0  0  0  0  0
   -5.0128    0.2725  -21.8172 C   0  0  0  0  0  0  0  0  0  0  0  0
   -5.4411   -0.0262  -20.4949 C   0  0  0  0  0  0  0  0  0  0  0  0
   -5.5504   -0.1492  -22.6617 H   0  0  0  0  0  0  0  0  0  0  0  0
   -3.6146    1.3353  -23.0318 H   0  0  0  0  0  0  0  0  0  0  0  0
   -2.3619    2.2641  -21.0978 H   0  0  0  0  0  0  0  0  0  0  0  0
   -3.0911    1.7551  -18.7831 H   0  0  0  0  0  0  0  0  0  0  0  0
   -4.6429    0.6356  -17.2387 H   0  0  0  0  0  0  0  0  0  0  0  0
   -7.7274   -1.7315  -18.6149 H   0  0  0  0  0  0  0  0  0  0  0  0
   -8.3551   -0.5479  -21.9035 C   0  0  0  0  0  0  0  0  0  0  0  0
   -8.9836   -1.5128  -22.9175 C   0  0  2  0  0  0  0  0  0  0  0  0
  -10.4368   -1.1788  -23.2382 C   0  0  0  0  0  0  0  0  0  0  0  0
  -10.5271   -0.2095  -23.7322 H   0  0  0  0  0  0  0  0  0  0  0  0
  -11.0311   -1.1369  -22.3197 H   0  0  0  0  0  0  0  0  0  0  0  0
  -10.8812   -1.9484  -23.8771 H   0  0  0  0  0  0  0  0  0  0  0  0
   -8.3962   -1.4806  -23.8453 H   0  0  0  0  0  0  0  0  0  0  0  0
   -7.9012    0.3246  -22.3814 H   0  0  0  0  0  0  0  0  0  0  0  0
   -9.1057   -0.1862  -21.1854 H   0  0  0  0  0  0  0  0  0  0  0  0
   -8.4696   -3.9901  -23.3233 C   0  0  0  0  0  0  0  0  0  0  0  0
   -7.2099   -4.0874  -23.9166 C   0  0  0  0  0  0  0  0  0  0  0  0
   -7.0117   -5.0150  -24.9174 C   0  0  0  0  0  0  0  0  0  0  0  0
   -5.8127   -5.0760  -25.5138 F   0  0  0  0  0  0  0  0  0  0  0  0
   -8.0081   -5.8796  -25.3542 C   0  0  0  0  0  0  0  0  0  0  0  0
   -9.2519   -5.7787  -24.7650 C   0  0  0  0  0  0  0  0  0  0  0  0
   -9.4801   -4.8380  -23.7633 C   0  0  0  0  0  0  0  0  0  0  0  0
  -10.8511   -4.7281  -23.2102 C   0  0  0  0  0  0  0  0  0  0  0  0
  -11.7726   -5.3651  -23.6835 O   0  0  0  0  0  0  0  0  0  0  0  0
  -10.0754   -6.4192  -25.0590 H   0  0  0  0  0  0  0  0  0  0  0  0
   -7.7899   -6.5872  -26.1462 H   0  0  0  0  0  0  0  0  0  0  0  0
   -6.3972   -3.4435  -23.6029 H   0  0  0  0  0  0  0  0  0  0  0  0
   -9.5924   -4.1202  -20.7260 H   0  0  0  0  0  0  0  0  0  0  0  0
  -10.2650   -2.4995  -20.8318 H   0  0  0  0  0  0  0  0  0  0  0  0
  -12.8291   -4.8104  -21.9670 H   0  0  0  0  0  0  0  0  0  0  0  0
  -12.3799   -3.8748  -20.5091 H   0  0  0  0  0  0  0  0  0  0  0  0
  -13.8954   -3.1490  -23.2864 O   0  0  0  0  0  0  0  0  0  0  0  0
  -14.6099   -2.0605  -23.7229 N   0  0  0  0  0  0  0  0  0  0  0  0
  -13.6965   -1.1207  -20.7566 H   0  0  0  0  0  0  0  0  0  0  0  0
  -15.6983   -0.0912  -23.7592 H   0  0  0  0  0  0  0  0  0  0  0  0
  -14.3243    0.9315  -23.2315 H   0  0  0  0  0  0  0  0  0  0  0  0
  -15.6348    0.4924  -22.0779 H   0  0  0  0  0  0  0  0  0  0  0  0
  1  2  1  0
  2  3  1  0
  3  4  2  0
  4  5  1  0
  5  6  1  0
  6  7  1  0
  8  7  1  1
  8  9  1  0
  9 10  2  0
  9 11  1  0
 11 12  1  0
 12 13  2  0
 13 14  1  0
 14 15  2  0
 15 16  1  0
 16 17  2  0
 17 18  1  0
 18 19  2  0
 19 20  1  0
 20 21  2  0
 20 22  1  0
 19 23  1  0
 18 24  1  0
 17 25  1  0
 15 26  1  0
 13 27  1  0
 11 28  1  0
 28 29  1  0
 29 30  1  0
 30 31  1  0
 30 32  1  0
 30 33  1  0
 29 34  1  6
 28 35  1  0
 28 36  1  0
  8 37  1  0
 37 38  2  0
 38 39  1  0
 39 40  1  0
 39 41  2  0
 41 42  1  0
 42 43  2  0
 43 44  1  0
 44 45  2  0
 42 46  1  0
 41 47  1  0
 38 48  1  0
  7 49  1  0
  7 50  1  0
  5 51  1  0
  5 52  1  0
  4 53  1  0
 53 54  1  0
  3 55  1  0
  1 56  1  0
  1 57  1  0
  1 58  1  0
 54  2  2  0
 44  6  1  0
 29  8  1  0
 43 37  1  0
 21 12  1  0
 21 16  1  0
M  END
>  <cnnaffinities>  (65) 
[6.56328]

>  <score>  (65) 
6.56328

>  <index>  (65) 
67

>  <Smiles>  (65) 
C(c1c(c(C(N2C([C@@]3(C(=O)N(c4c(nc(c5c(c(c(c(c45)[H])[H])[H])[H])[H])[H])C([C@@]3(C([H])([H])[H])[H])([H])[H])c3c(c(F)c(c(c3C2=O)[H])[H])[H])([H])[H])([H])[H])on1)[H])([H])([H])[H]

>  <h>  (65) 
<NA>

>  <Training>  (65) 
True

>  <Success>  (65) 
True

>  <enamine_searched>  (65) 
False

>  <enamine_id>  (65) 
nan

$$$$

     RDKit          3D

 65 70  0  0  0  0  0  0  0  0999 V2000
   -5.6300   -3.2375  -21.2612 O   0  0  0  0  0  0  0  0  0  0  0  0
   -6.5798   -2.7572  -21.8616 C   0  0  0  0  0  0  0  0  0  0  0  0
   -7.3044   -1.5284  -21.2983 C   0  0  0  0  0  0  0  0  0  0  0  0
   -6.5400   -0.8634  -20.2052 C   0  0  0  0  0  0  0  0  0  0  0  0
   -6.8745   -1.0743  -18.8953 C   0  0  0  0  0  0  0  0  0  0  0  0
   -6.2142   -0.5595  -17.8277 N   0  0  0  0  0  0  0  0  0  0  0  0
   -5.1763    0.1972  -18.0870 C   0  0  0  0  0  0  0  0  0  0  0  0
   -4.7108    0.4963  -19.3963 C   0  0  0  0  0  0  0  0  0  0  0  0
   -3.5877    1.3295  -19.6250 C   0  0  0  0  0  0  0  0  0  0  0  0
   -3.1901    1.6306  -20.8984 C   0  0  0  0  0  0  0  0  0  0  0  0
   -3.8995    1.1103  -22.0027 C   0  0  0  0  0  0  0  0  0  0  0  0
   -4.9795    0.2861  -21.8088 C   0  0  0  0  0  0  0  0  0  0  0  0
   -5.4158   -0.0417  -20.4960 C   0  0  0  0  0  0  0  0  0  0  0  0
   -5.5115   -0.1109  -22.6687 H   0  0  0  0  0  0  0  0  0  0  0  0
   -3.5933    1.3753  -23.0100 H   0  0  0  0  0  0  0  0  0  0  0  0
   -2.3408    2.2859  -21.0678 H   0  0  0  0  0  0  0  0  0  0  0  0
   -3.0729    1.7475  -18.7649 H   0  0  0  0  0  0  0  0  0  0  0  0
   -4.6460    0.6198  -17.2336 H   0  0  0  0  0  0  0  0  0  0  0  0
   -7.7361   -1.6995  -18.6566 H   0  0  0  0  0  0  0  0  0  0  0  0
   -8.2706   -1.8756  -20.9115 H   0  0  0  0  0  0  0  0  0  0  0  0
   -7.5184   -0.8172  -22.1000 H   0  0  0  0  0  0  0  0  0  0  0  0
   -7.0840   -3.2884  -23.0335 N   0  0  0  0  0  0  0  0  0  0  0  0
   -7.8744   -2.4815  -23.9530 C   0  0  0  0  0  0  0  0  0  0  0  0
   -9.2766   -2.1549  -23.4811 C   0  0  0  0  0  0  0  0  0  0  0  0
   -9.8095   -0.8934  -23.7301 C   0  0  0  0  0  0  0  0  0  0  0  0
  -11.0881   -0.5652  -23.2922 C   0  0  0  0  0  0  0  0  0  0  0  0
  -11.8783   -1.4955  -22.6318 C   0  0  0  0  0  0  0  0  0  0  0  0
  -11.3501   -2.7586  -22.4180 C   0  0  0  0  0  0  0  0  0  0  0  0
  -12.3362   -3.9799  -21.6717 Cl  0  0  0  0  0  0  0  0  0  0  0  0
  -10.0510   -3.0817  -22.7870 C   0  0  0  0  0  0  0  0  0  0  0  0
   -9.6659   -4.0575  -22.5091 H   0  0  0  0  0  0  0  0  0  0  0  0
  -12.8743   -1.2500  -22.2804 H   0  0  0  0  0  0  0  0  0  0  0  0
  -11.4797    0.4301  -23.4816 H   0  0  0  0  0  0  0  0  0  0  0  0
   -9.2106   -0.1531  -24.2575 H   0  0  0  0  0  0  0  0  0  0  0  0
   -7.9439   -3.0045  -24.9072 H   0  0  0  0  0  0  0  0  0  0  0  0
   -7.3362   -1.5480  -24.1677 H   0  0  0  0  0  0  0  0  0  0  0  0
   -6.7645   -4.6752  -23.3639 C   0  0  2  0  0  0  0  0  0  0  0  0
   -7.6783   -5.3413  -24.4217 C   0  0  0  0  0  0  0  0  0  0  0  0
   -7.4742   -6.8583  -24.1978 C   0  0  0  0  0  0  0  0  0  0  0  0
   -6.4553   -6.8799  -23.0654 C   0  0  2  0  0  0  0  0  0  0  0  0
   -6.8648   -5.6903  -22.2101 C   0  0  0  0  0  0  0  0  0  0  0  0
   -6.1838   -5.4677  -21.3851 H   0  0  0  0  0  0  0  0  0  0  0  0
   -7.8910   -5.7591  -21.8307 H   0  0  0  0  0  0  0  0  0  0  0  0
   -5.1179   -6.4169  -23.6963 N   0  0  2  0  0  4  0  0  0  0  0  0
   -3.9220   -6.7629  -22.8606 C   0  0  0  0  0  0  0  0  0  0  0  0
   -3.0623   -7.9227  -23.3674 C   0  0  0  0  0  0  0  0  0  0  0  0
   -3.7681   -9.0265  -24.1598 C   0  0  0  0  0  0  0  0  0  0  0  0
   -3.5002   -8.3367  -25.3899 O   0  0  0  0  0  0  0  0  0  0  0  0
   -2.4252   -7.6407  -24.7322 C   0  0  0  0  0  0  0  0  0  0  0  0
   -2.3805   -6.5976  -25.0484 H   0  0  0  0  0  0  0  0  0  0  0  0
   -1.4543   -8.1452  -24.8687 H   0  0  0  0  0  0  0  0  0  0  0  0
   -3.2120   -9.9754  -24.0913 H   0  0  0  0  0  0  0  0  0  0  0  0
   -4.8417   -9.1994  -24.0308 H   0  0  0  0  0  0  0  0  0  0  0  0
   -2.4159   -8.2763  -22.5634 H   0  0  0  0  0  0  0  0  0  0  0  0
   -3.2803   -5.8792  -22.8077 H   0  0  0  0  0  0  0  0  0  0  0  0
   -4.2613   -6.9453  -21.8397 H   0  0  0  0  0  0  0  0  0  0  0  0
   -5.3259   -4.9049  -23.8642 C   0  0  0  0  0  0  0  0  0  0  0  0
   -4.6096   -4.3673  -23.2437 H   0  0  0  0  0  0  0  0  0  0  0  0
   -5.1797   -4.6332  -24.9117 H   0  0  0  0  0  0  0  0  0  0  0  0
   -4.9871   -6.8536  -24.6225 H   0  0  0  0  0  0  0  0  0  0  0  0
   -6.3204   -7.8293  -22.5479 H   0  0  0  0  0  0  0  0  0  0  0  0
   -8.4066   -7.3473  -23.9086 H   0  0  0  0  0  0  0  0  0  0  0  0
   -7.0832   -7.3717  -25.0826 H   0  0  0  0  0  0  0  0  0  0  0  0
   -7.4051   -5.0399  -25.4370 H   0  0  0  0  0  0  0  0  0  0  0  0
   -8.7180   -5.0526  -24.2497 H   0  0  0  0  0  0  0  0  0  0  0  0
  1  2  2  0
  2  3  1  0
  3  4  1  0
  4  5  2  0
  5  6  1  0
  6  7  2  0
  7  8  1  0
  8  9  2  0
  9 10  1  0
 10 11  2  0
 11 12  1  0
 12 13  2  0
 12 14  1  0
 11 15  1  0
 10 16  1  0
  9 17  1  0
  7 18  1  0
  5 19  1  0
  3 20  1  0
  3 21  1  0
  2 22  1  0
 22 23  1  0
 23 24  1  0
 24 25  2  0
 25 26  1  0
 26 27  2  0
 27 28  1  0
 28 29  1  0
 28 30  2  0
 30 31  1  0
 27 32  1  0
 26 33  1  0
 25 34  1  0
 23 35  1  0
 23 36  1  0
 37 22  1  1
 37 38  1  0
 38 39  1  0
 39 40  1  0
 40 41  1  0
 41 42  1  0
 41 43  1  0
 40 44  1  0
 44 45  1  0
 45 46  1  0
 46 47  1  0
 47 48  1  0
 48 49  1  0
 49 50  1  0
 49 51  1  0
 47 52  1  0
 47 53  1  0
 46 54  1  0
 45 55  1  0
 45 56  1  0
 44 57  1  0
 57 58  1  0
 57 59  1  0
 44 60  1  6
 40 61  1  1
 39 62  1  0
 39 63  1  0
 38 64  1  0
 38 65  1  0
 13  4  1  0
 30 24  1  0
 41 37  1  0
 49 46  1  0
 13  8  1  0
 57 37  1  0
M  CHG  1  44   1
M  END
>  <cnnaffinities>  (66) 
[6.01855]

>  <score>  (66) 
6.01855

>  <index>  (66) 
68

>  <Smiles>  (66) 
O=C(C(c1c(nc(c2c(c(c(c(c12)[H])[H])[H])[H])[H])[H])([H])[H])N(C(c1c(c(c(c(Cl)c1[H])[H])[H])[H])([H])[H])[C@]12C(C([C@](C1([H])[H])([N@+](C(C1(C(OC1([H])[H])([H])[H])[H])([H])[H])(C2([H])[H])[H])[H])([H])[H])([H])[H]

>  <h>  (66) 
<NA>

>  <Training>  (66) 
True

>  <Success>  (66) 
True

>  <enamine_searched>  (66) 
False

>  <enamine_id>  (66) 
nan

$$$$

     RDKit          3D

 63 67  0  0  0  0  0  0  0  0999 V2000
   -7.4460   -4.3796  -27.9847 C   0  0  0  0  0  0  0  0  0  0  0  0
   -8.5643   -4.0229  -28.6157 C   0  0  0  0  0  0  0  0  0  0  0  0
   -9.0090   -2.6017  -28.6842 C   0  0  0  0  0  0  0  0  0  0  0  0
   -9.6619   -2.1778  -29.6180 O   0  0  0  0  0  0  0  0  0  0  0  0
   -8.5365   -1.7381  -27.6824 N   0  0  0  0  0  0  0  0  0  0  0  0
   -7.9451   -0.4829  -28.1453 C   0  0  0  0  0  0  0  0  0  0  0  0
   -6.7121   -0.2086  -27.3047 C   0  0  0  0  0  0  0  0  0  0  0  0
   -7.1772    0.0226  -25.8702 C   0  0  0  0  0  0  0  0  0  0  0  0
   -8.0311   -1.1267  -25.3657 C   0  0  0  0  0  0  0  0  0  0  0  0
   -8.6703   -1.9730  -26.2987 C   0  0  0  0  0  0  0  0  0  0  0  0
   -9.4347   -3.0542  -25.8278 C   0  0  0  0  0  0  0  0  0  0  0  0
   -9.3592   -3.4323  -24.4964 C   0  0  0  0  0  0  0  0  0  0  0  0
   -8.6924   -2.6266  -23.5726 C   0  0  0  0  0  0  0  0  0  0  0  0
   -8.2186   -1.3921  -24.0018 C   0  0  0  0  0  0  0  0  0  0  0  0
   -8.0507   -0.2320  -22.9804 N   0  0  1  0  0  4  0  0  0  0  0  0
   -8.9806    1.0422  -23.2753 C   0  0  0  0  0  0  0  0  0  0  0  0
  -10.4607    0.8258  -23.0457 C   0  0  0  0  0  0  0  0  0  0  0  0
  -11.2420    1.8728  -22.5670 C   0  0  0  0  0  0  0  0  0  0  0  0
  -12.6240    1.7366  -22.4591 C   0  0  0  0  0  0  0  0  0  0  0  0
  -13.2337    0.5231  -22.7531 C   0  0  0  0  0  0  0  0  0  0  0  0
  -12.4424   -0.5201  -23.2053 C   0  0  0  0  0  0  0  0  0  0  0  0
  -13.1764   -2.0540  -23.5888 Cl  0  0  0  0  0  0  0  0  0  0  0  0
  -11.0752   -0.3762  -23.3837 C   0  0  0  0  0  0  0  0  0  0  0  0
  -10.5068   -1.1759  -23.8419 H   0  0  0  0  0  0  0  0  0  0  0  0
  -14.3006    0.3676  -22.6226 H   0  0  0  0  0  0  0  0  0  0  0  0
  -13.2353    2.5849  -22.1725 H   0  0  0  0  0  0  0  0  0  0  0  0
  -10.7700    2.8103  -22.2766 H   0  0  0  0  0  0  0  0  0  0  0  0
   -8.5979    1.8510  -22.6488 H   0  0  0  0  0  0  0  0  0  0  0  0
   -8.8163    1.2939  -24.3222 H   0  0  0  0  0  0  0  0  0  0  0  0
   -8.0915   -0.5353  -21.4873 C   0  0  0  0  0  0  0  0  0  0  0  0
   -8.8614    0.0640  -20.7806 O   0  0  0  0  0  0  0  0  0  0  0  0
   -7.1025   -1.5675  -20.9362 C   0  0  0  0  0  0  0  0  0  0  0  0
   -6.2231   -0.9640  -19.8665 C   0  0  0  0  0  0  0  0  0  0  0  0
   -6.5112   -1.1279  -18.5378 C   0  0  0  0  0  0  0  0  0  0  0  0
   -5.8253   -0.5544  -17.5162 N   0  0  0  0  0  0  0  0  0  0  0  0
   -4.8276    0.2308  -17.8326 C   0  0  0  0  0  0  0  0  0  0  0  0
   -4.4131    0.5015  -19.1623 C   0  0  0  0  0  0  0  0  0  0  0  0
   -3.3574    1.4055  -19.4545 C   0  0  0  0  0  0  0  0  0  0  0  0
   -3.0565    1.7179  -20.7530 C   0  0  0  0  0  0  0  0  0  0  0  0
   -3.7967    1.1373  -21.8112 C   0  0  0  0  0  0  0  0  0  0  0  0
   -4.7960    0.2322  -21.5476 C   0  0  0  0  0  0  0  0  0  0  0  0
   -5.1432   -0.1009  -20.2137 C   0  0  0  0  0  0  0  0  0  0  0  0
   -5.3670   -0.1902  -22.3707 H   0  0  0  0  0  0  0  0  0  0  0  0
   -3.5962    1.4258  -22.8400 H   0  0  0  0  0  0  0  0  0  0  0  0
   -2.2842    2.4492  -20.9782 H   0  0  0  0  0  0  0  0  0  0  0  0
   -2.8340    1.8792  -18.6245 H   0  0  0  0  0  0  0  0  0  0  0  0
   -4.3083    0.7222  -17.0108 H   0  0  0  0  0  0  0  0  0  0  0  0
   -7.3554   -1.7456  -18.2313 H   0  0  0  0  0  0  0  0  0  0  0  0
   -7.7122   -2.3722  -20.5053 H   0  0  0  0  0  0  0  0  0  0  0  0
   -6.5268   -1.9941  -21.7601 H   0  0  0  0  0  0  0  0  0  0  0  0
   -7.0772    0.0963  -23.1678 H   0  0  0  0  0  0  0  0  0  0  0  0
   -8.6433   -2.9065  -22.5291 H   0  0  0  0  0  0  0  0  0  0  0  0
   -9.8758   -4.3271  -24.1622 H   0  0  0  0  0  0  0  0  0  0  0  0
  -10.0683   -3.6200  -26.5008 H   0  0  0  0  0  0  0  0  0  0  0  0
   -7.7606    0.9544  -25.8721 H   0  0  0  0  0  0  0  0  0  0  0  0
   -6.3245    0.2016  -25.2055 H   0  0  0  0  0  0  0  0  0  0  0  0
   -6.1581    0.6562  -27.6821 H   0  0  0  0  0  0  0  0  0  0  0  0
   -6.0369   -1.0717  -27.3668 H   0  0  0  0  0  0  0  0  0  0  0  0
   -8.6702    0.3377  -28.0599 H   0  0  0  0  0  0  0  0  0  0  0  0
   -7.7014   -0.5866  -29.2053 H   0  0  0  0  0  0  0  0  0  0  0  0
   -9.1585   -4.7202  -29.2010 H   0  0  0  0  0  0  0  0  0  0  0  0
   -7.0412   -5.3829  -28.0631 H   0  0  0  0  0  0  0  0  0  0  0  0
   -6.8850   -3.6527  -27.3986 H   0  0  0  0  0  0  0  0  0  0  0  0
  1  2  2  0
  2  3  1  0
  3  4  2  0
  3  5  1  0
  5  6  1  0
  6  7  1  0
  7  8  1  0
  8  9  1  0
  9 10  2  0
 10 11  1  0
 11 12  2  0
 12 13  1  0
 13 14  2  0
 14 15  1  0
 15 16  1  0
 16 17  1  0
 17 18  2  0
 18 19  1  0
 19 20  2  0
 20 21  1  0
 21 22  1  0
 21 23  2  0
 23 24  1  0
 20 25  1  0
 19 26  1  0
 18 27  1  0
 16 28  1  0
 16 29  1  0
 15 30  1  0
 30 31  2  0
 30 32  1  0
 32 33  1  0
 33 34  2  0
 34 35  1  0
 35 36  2  0
 36 37  1  0
 37 38  2  0
 38 39  1  0
 39 40  2  0
 40 41  1  0
 41 42  2  0
 41 43  1  0
 40 44  1  0
 39 45  1  0
 38 46  1  0
 36 47  1  0
 34 48  1  0
 32 49  1  0
 32 50  1  0
 15 51  1  6
 13 52  1  0
 12 53  1  0
 11 54  1  0
  8 55  1  0
  8 56  1  0
  7 57  1  0
  7 58  1  0
  6 59  1  0
  6 60  1  0
  2 61  1  0
  1 62  1  0
  1 63  1  0
 10  5  1  0
 23 17  1  0
 42 33  1  0
 14  9  1  0
 42 37  1  0
M  CHG  1  15   1
M  END
>  <cnnaffinities>  (67) 
[6.28927]

>  <score>  (67) 
6.28927

>  <index>  (67) 
69

>  <Smiles>  (67) 
C(=C(C(=O)N1C(C(C(c2c1c(c(c(c2[N@@+](C(c1c(c(c(c(Cl)c1[H])[H])[H])[H])([H])[H])(C(=O)C(c1c(nc(c2c(c(c(c(c12)[H])[H])[H])[H])[H])[H])([H])[H])[H])[H])[H])[H])([H])[H])([H])[H])([H])[H])[H])([H])[H]

>  <h>  (67) 
<NA>

>  <Training>  (67) 
True

>  <Success>  (67) 
True

>  <enamine_searched>  (67) 
False

>  <enamine_id>  (67) 
nan

$$$$

     RDKit          3D

 52 54  0  0  0  0  0  0  0  0999 V2000
   -4.7467   -5.0438  -26.7362 C   0  0  0  0  0  0  0  0  0  0  0  0
   -5.9484   -5.7452  -26.0896 C   0  0  0  0  0  0  0  0  0  0  0  0
   -6.3823   -6.9309  -26.9587 C   0  0  0  0  0  0  0  0  0  0  0  0
   -5.5177   -7.4120  -27.4312 H   0  0  0  0  0  0  0  0  0  0  0  0
   -7.0508   -6.6104  -27.7656 H   0  0  0  0  0  0  0  0  0  0  0  0
   -6.9036   -7.7025  -26.3848 H   0  0  0  0  0  0  0  0  0  0  0  0
   -7.0627   -4.7181  -25.8136 C   0  0  0  0  0  0  0  0  0  0  0  0
   -8.3089   -5.1044  -24.9668 C   0  0  0  0  0  0  0  0  0  0  0  0
   -9.2762   -5.9834  -25.7776 C   0  0  0  0  0  0  0  0  0  0  0  0
  -10.2233   -6.1166  -25.2399 H   0  0  0  0  0  0  0  0  0  0  0  0
   -9.5157   -5.5269  -26.7472 H   0  0  0  0  0  0  0  0  0  0  0  0
   -8.8865   -6.9875  -25.9725 H   0  0  0  0  0  0  0  0  0  0  0  0
   -9.0556   -3.7985  -24.5640 C   0  0  0  0  0  0  0  0  0  0  0  0
   -8.8710   -3.3587  -23.1004 C   0  0  0  0  0  0  0  0  0  0  0  0
   -7.5334   -3.6246  -22.5923 N   0  0  0  0  0  0  0  0  0  0  0  0
   -6.7682   -2.7649  -21.8366 C   0  0  0  0  0  0  0  0  0  0  0  0
   -5.5991   -3.0164  -21.5954 O   0  0  0  0  0  0  0  0  0  0  0  0
   -7.4188   -1.4785  -21.2639 C   0  0  0  0  0  0  0  0  0  0  0  0
   -6.5790   -0.8313  -20.1834 C   0  0  0  0  0  0  0  0  0  0  0  0
   -6.8725   -1.0446  -18.8629 C   0  0  0  0  0  0  0  0  0  0  0  0
   -6.1837   -0.5416  -17.8049 N   0  0  0  0  0  0  0  0  0  0  0  0
   -5.1550    0.2228  -18.0689 C   0  0  0  0  0  0  0  0  0  0  0  0
   -4.7185    0.5299  -19.3835 C   0  0  0  0  0  0  0  0  0  0  0  0
   -3.5884    1.3537  -19.6230 C   0  0  0  0  0  0  0  0  0  0  0  0
   -3.1883    1.6317  -20.9007 C   0  0  0  0  0  0  0  0  0  0  0  0
   -3.9034    1.0924  -21.9921 C   0  0  0  0  0  0  0  0  0  0  0  0
   -4.9980    0.2883  -21.7871 C   0  0  0  0  0  0  0  0  0  0  0  0
   -5.4437   -0.0135  -20.4750 C   0  0  0  0  0  0  0  0  0  0  0  0
   -5.5233   -0.1356  -22.6367 H   0  0  0  0  0  0  0  0  0  0  0  0
   -3.5782    1.3168  -23.0039 H   0  0  0  0  0  0  0  0  0  0  0  0
   -2.3284    2.2725  -21.0842 H   0  0  0  0  0  0  0  0  0  0  0  0
   -3.0569    1.7742  -18.7715 H   0  0  0  0  0  0  0  0  0  0  0  0
   -4.6021    0.6282  -17.2174 H   0  0  0  0  0  0  0  0  0  0  0  0
   -7.7203   -1.6694  -18.5841 H   0  0  0  0  0  0  0  0  0  0  0  0
   -7.6025   -0.7619  -22.0769 H   0  0  0  0  0  0  0  0  0  0  0  0
   -8.4057   -1.7251  -20.8440 H   0  0  0  0  0  0  0  0  0  0  0  0
   -7.0260   -4.9906  -22.7598 C   0  0  0  0  0  0  0  0  0  0  0  0
   -7.9156   -5.8299  -23.6755 C   0  0  0  0  0  0  0  0  0  0  0  0
   -7.4033   -6.7667  -23.9179 H   0  0  0  0  0  0  0  0  0  0  0  0
   -8.8212   -6.1425  -23.1414 H   0  0  0  0  0  0  0  0  0  0  0  0
   -6.9469   -5.4805  -21.7815 H   0  0  0  0  0  0  0  0  0  0  0  0
   -6.0052   -4.9450  -23.1540 H   0  0  0  0  0  0  0  0  0  0  0  0
   -9.0732   -2.2894  -23.0268 H   0  0  0  0  0  0  0  0  0  0  0  0
   -9.6206   -3.8625  -22.4738 H   0  0  0  0  0  0  0  0  0  0  0  0
   -8.7565   -2.9836  -25.2305 H   0  0  0  0  0  0  0  0  0  0  0  0
  -10.1335   -3.9139  -24.7255 H   0  0  0  0  0  0  0  0  0  0  0  0
   -6.5958   -3.8464  -25.3352 H   0  0  0  0  0  0  0  0  0  0  0  0
   -7.4202   -4.3427  -26.7846 H   0  0  0  0  0  0  0  0  0  0  0  0
   -5.5948   -6.1429  -25.1323 H   0  0  0  0  0  0  0  0  0  0  0  0
   -4.3706   -4.2221  -26.1153 H   0  0  0  0  0  0  0  0  0  0  0  0
   -5.0042   -4.6324  -27.7203 H   0  0  0  0  0  0  0  0  0  0  0  0
   -3.9160   -5.7443  -26.8881 H   0  0  0  0  0  0  0  0  0  0  0  0
  1  2  1  0
  2  3  1  0
  3  4  1  0
  3  5  1  0
  3  6  1  0
  2  7  1  0
  7  8  1  0
  8  9  1  0
  9 10  1  0
  9 11  1  0
  9 12  1  0
  8 13  1  0
 13 14  1  0
 14 15  1  0
 15 16  1  0
 16 17  2  0
 16 18  1  0
 18 19  1  0
 19 20  2  0
 20 21  1  0
 21 22  2  0
 22 23  1  0
 23 24  2  0
 24 25  1  0
 25 26  2  0
 26 27  1  0
 27 28  2  0
 27 29  1  0
 26 30  1  0
 25 31  1  0
 24 32  1  0
 22 33  1  0
 20 34  1  0
 18 35  1  0
 18 36  1  0
 15 37  1  0
 37 38  1  0
 38 39  1  0
 38 40  1  0
 37 41  1  0
 37 42  1  0
 14 43  1  0
 14 44  1  0
 13 45  1  0
 13 46  1  0
  7 47  1  0
  7 48  1  0
  2 49  1  0
  1 50  1  0
  1 51  1  0
  1 52  1  0
 38  8  1  0
 28 19  1  0
 28 23  1  0
M  END
>  <cnnaffinities>  (68) 
[5.5196, 5.52407, 5.52402, 5.09696, 5.13033, 5.13027, 5.51524, 5.47005, 5.2293, 5.22935, 5.22929, 5.22935, 5.07963, 5.1257, 5.08511, 5.28984, 5.28984, 5.28973, 5.11926, 5.11936, 5.11934, 4.80411, 4.80529, 5.10696, 4.86019]

>  <score>  (68) 
5.5196

>  <index>  (68) 
70

>  <Smiles>  (68) 
C(C(C([H])([H])[H])(C(C1(C([H])([H])[H])C(C(N(C(=O)C(c2c(nc(c3c(c(c(c(c23)[H])[H])[H])[H])[H])[H])([H])[H])C(C1([H])[H])([H])[H])([H])[H])([H])[H])([H])[H])[H])([H])([H])[H]

>  <h>  (68) 
<NA>

>  <Training>  (68) 
True

>  <Success>  (68) 
True

>  <enamine_searched>  (68) 
False

>  <enamine_id>  (68) 
nan

$$$$

     RDKit          3D

 50 54  0  0  0  0  0  0  0  0999 V2000
  -10.4330   -1.1596  -23.2588 C   0  0  0  0  0  0  0  0  0  0  0  0
   -8.9807   -1.4930  -22.9285 C   0  0  1  0  0  0  0  0  0  0  0  0
   -8.3571   -0.5323  -21.9083 C   0  0  0  0  0  0  0  0  0  0  0  0
   -7.3576   -1.3416  -21.2339 N   0  0  0  0  0  0  0  0  0  0  0  0
   -6.5630   -0.8464  -20.1833 C   0  0  0  0  0  0  0  0  0  0  0  0
   -6.8839   -1.0945  -18.8740 C   0  0  0  0  0  0  0  0  0  0  0  0
   -6.2095   -0.5691  -17.8227 N   0  0  0  0  0  0  0  0  0  0  0  0
   -5.1848    0.2024  -18.0861 C   0  0  0  0  0  0  0  0  0  0  0  0
   -4.7335    0.5074  -19.4027 C   0  0  0  0  0  0  0  0  0  0  0  0
   -3.6096    1.3349  -19.6428 C   0  0  0  0  0  0  0  0  0  0  0  0
   -3.2193    1.6176  -20.9210 C   0  0  0  0  0  0  0  0  0  0  0  0
   -3.9285    1.0893  -22.0223 C   0  0  0  0  0  0  0  0  0  0  0  0
   -5.0138    0.2726  -21.8194 C   0  0  0  0  0  0  0  0  0  0  0  0
   -5.4438   -0.0256  -20.4977 C   0  0  0  0  0  0  0  0  0  0  0  0
   -5.5495   -0.1507  -22.6651 H   0  0  0  0  0  0  0  0  0  0  0  0
   -3.6182    1.3390  -23.0325 H   0  0  0  0  0  0  0  0  0  0  0  0
   -2.3670    2.2643  -21.0971 H   0  0  0  0  0  0  0  0  0  0  0  0
   -3.0944    1.7532  -18.7829 H   0  0  0  0  0  0  0  0  0  0  0  0
   -4.6473    0.6362  -17.2396 H   0  0  0  0  0  0  0  0  0  0  0  0
   -7.7241   -1.7382  -18.6230 H   0  0  0  0  0  0  0  0  0  0  0  0
   -7.5505   -2.6921  -21.3793 C   0  0  0  0  0  0  0  0  0  0  0  0
   -6.8600   -3.5473  -20.8539 O   0  0  0  0  0  0  0  0  0  0  0  0
   -8.7581   -2.9069  -22.2900 C   0  0  1  0  0  0  0  0  0  0  0  0
   -9.9501   -3.2979  -21.3994 C   0  0  0  0  0  0  0  0  0  0  0  0
  -11.0850   -3.7340  -22.1834 N   0  0  0  0  0  0  0  0  0  0  0  0
  -12.4533   -3.5553  -21.7414 C   0  0  0  0  0  0  0  0  0  0  0  0
  -13.3388   -2.7625  -22.6283 C   0  0  0  0  0  0  0  0  0  0  0  0
  -14.1338   -2.2025  -23.2551 N   0  0  0  0  0  0  0  0  0  0  0  0
  -12.4870   -3.1007  -20.7500 H   0  0  0  0  0  0  0  0  0  0  0  0
  -12.9134   -4.5421  -21.7151 H   0  0  0  0  0  0  0  0  0  0  0  0
  -10.9077   -4.6599  -23.1739 C   0  0  0  0  0  0  0  0  0  0  0  0
  -11.8568   -5.2828  -23.6108 O   0  0  0  0  0  0  0  0  0  0  0  0
   -9.5352   -4.8302  -23.7226 C   0  0  0  0  0  0  0  0  0  0  0  0
   -9.3216   -5.7855  -24.7149 C   0  0  0  0  0  0  0  0  0  0  0  0
   -8.0844   -5.9086  -25.3112 C   0  0  0  0  0  0  0  0  0  0  0  0
   -7.0749   -5.0567  -24.8883 C   0  0  0  0  0  0  0  0  0  0  0  0
   -5.8820   -5.1451  -25.4871 F   0  0  0  0  0  0  0  0  0  0  0  0
   -7.2519   -4.1139  -23.9011 C   0  0  0  0  0  0  0  0  0  0  0  0
   -8.5055   -3.9903  -23.3039 C   0  0  0  0  0  0  0  0  0  0  0  0
   -6.4268   -3.4827  -23.5952 H   0  0  0  0  0  0  0  0  0  0  0  0
   -7.8821   -6.6310  -26.0912 H   0  0  0  0  0  0  0  0  0  0  0  0
  -10.1522   -6.4164  -25.0028 H   0  0  0  0  0  0  0  0  0  0  0  0
   -9.6275   -4.0820  -20.7176 H   0  0  0  0  0  0  0  0  0  0  0  0
  -10.2318   -2.4272  -20.8041 H   0  0  0  0  0  0  0  0  0  0  0  0
   -9.1136   -0.1799  -21.1929 H   0  0  0  0  0  0  0  0  0  0  0  0
   -7.9028    0.3435  -22.3774 H   0  0  0  0  0  0  0  0  0  0  0  0
   -8.3850   -1.4695  -23.8517 H   0  0  0  0  0  0  0  0  0  0  0  0
  -10.5225   -0.1830  -23.7341 H   0  0  0  0  0  0  0  0  0  0  0  0
  -11.0316   -1.1464  -22.3436 H   0  0  0  0  0  0  0  0  0  0  0  0
  -10.8647   -1.9216  -23.9137 H   0  0  0  0  0  0  0  0  0  0  0  0
  1  2  1  0
  2  3  1  0
  3  4  1  0
  4  5  1  0
  5  6  2  0
  6  7  1  0
  7  8  2  0
  8  9  1  0
  9 10  2  0
 10 11  1  0
 11 12  2  0
 12 13  1  0
 13 14  2  0
 13 15  1  0
 12 16  1  0
 11 17  1  0
 10 18  1  0
  8 19  1  0
  6 20  1  0
  4 21  1  0
 21 22  2  0
 21 23  1  0
 23 24  1  1
 24 25  1  0
 25 26  1  0
 26 27  1  0
 27 28  3  0
 26 29  1  0
 26 30  1  0
 25 31  1  0
 31 32  2  0
 31 33  1  0
 33 34  2  0
 34 35  1  0
 35 36  2  0
 36 37  1  0
 36 38  1  0
 38 39  2  0
 38 40  1  0
 35 41  1  0
 34 42  1  0
 24 43  1  0
 24 44  1  0
  3 45  1  0
  3 46  1  0
  2 47  1  6
  1 48  1  0
  1 49  1  0
  1 50  1  0
 23  2  1  0
 39 33  1  0
 14  5  1  0
 39 23  1  0
 14  9  1  0
M  END
>  <cnnaffinities>  (69) 
[6.44849, 6.20356, 5.98079]

>  <score>  (69) 
6.44849

>  <index>  (69) 
71

>  <Smiles>  (69) 
C([C@]1(C(N(c2c(nc(c3c(c(c(c(c23)[H])[H])[H])[H])[H])[H])C(=O)[C@]21C(N(C(C#N)([H])[H])C(=O)c1c(c(c(F)c(c21)[H])[H])[H])([H])[H])([H])[H])[H])([H])([H])[H]

>  <h>  (69) 
<NA>

>  <Training>  (69) 
True

>  <Success>  (69) 
True

>  <enamine_searched>  (69) 
False

>  <enamine_id>  (69) 
nan

$$$$

     RDKit          3D

 41 44  0  0  0  0  0  0  0  0999 V2000
   -8.9720    0.4109  -21.1315 O   0  0  0  0  0  0  0  0  0  0  0  0
   -8.3963   -0.3556  -21.8815 C   0  0  0  0  0  0  0  0  0  0  0  0
   -7.4306   -1.4117  -21.2849 C   0  0  0  0  0  0  0  0  0  0  0  0
   -6.5748   -0.8312  -20.1784 C   0  0  0  0  0  0  0  0  0  0  0  0
   -6.8769   -1.0386  -18.8549 C   0  0  0  0  0  0  0  0  0  0  0  0
   -6.1851   -0.5362  -17.7977 N   0  0  0  0  0  0  0  0  0  0  0  0
   -5.1528    0.2242  -18.0647 C   0  0  0  0  0  0  0  0  0  0  0  0
   -4.7181    0.5339  -19.3839 C   0  0  0  0  0  0  0  0  0  0  0  0
   -3.5921    1.3638  -19.6241 C   0  0  0  0  0  0  0  0  0  0  0  0
   -3.2068    1.6557  -20.9042 C   0  0  0  0  0  0  0  0  0  0  0  0
   -3.9337    1.1251  -21.9947 C   0  0  0  0  0  0  0  0  0  0  0  0
   -5.0247    0.3136  -21.7922 C   0  0  0  0  0  0  0  0  0  0  0  0
   -5.4475   -0.0030  -20.4726 C   0  0  0  0  0  0  0  0  0  0  0  0
   -5.5602   -0.0830  -22.6536 H   0  0  0  0  0  0  0  0  0  0  0  0
   -3.6229    1.3643  -23.0073 H   0  0  0  0  0  0  0  0  0  0  0  0
   -2.3532    2.3017  -21.0893 H   0  0  0  0  0  0  0  0  0  0  0  0
   -3.0557    1.7806  -18.7753 H   0  0  0  0  0  0  0  0  0  0  0  0
   -4.5990    0.6291  -17.2163 H   0  0  0  0  0  0  0  0  0  0  0  0
   -7.7288   -1.6607  -18.5839 H   0  0  0  0  0  0  0  0  0  0  0  0
   -8.0550   -2.2045  -20.8520 H   0  0  0  0  0  0  0  0  0  0  0  0
   -6.7991   -1.8809  -22.0496 H   0  0  0  0  0  0  0  0  0  0  0  0
   -8.5766   -0.2980  -23.2470 N   0  0  0  0  0  0  0  0  0  0  0  0
   -9.0744    0.9407  -23.8446 C   0  0  0  0  0  0  0  0  0  0  0  0
   -8.4358    1.2797  -25.1952 C   0  0  0  0  0  0  0  0  0  0  0  0
   -6.9096    1.1637  -25.2147 C   0  0  0  0  0  0  0  0  0  0  0  0
   -6.4015   -0.2573  -25.2614 C   0  0  0  0  0  0  0  0  0  0  0  0
   -4.8551   -0.6209  -25.9579 S   0  0  0  0  0  0  0  0  0  0  0  0
   -5.0225   -2.2984  -25.6023 C   0  0  0  0  0  0  0  0  0  0  0  0
   -6.2131   -2.5671  -24.9953 C   0  0  0  0  0  0  0  0  0  0  0  0
   -7.0071   -1.3974  -24.8031 C   0  0  0  0  0  0  0  0  0  0  0  0
   -8.3556   -1.4136  -24.1396 C   0  0  0  0  0  0  0  0  0  0  0  0
   -9.1435   -1.4237  -24.9013 H   0  0  0  0  0  0  0  0  0  0  0  0
   -8.4816   -2.3498  -23.5934 H   0  0  0  0  0  0  0  0  0  0  0  0
   -6.5257   -3.5585  -24.6717 H   0  0  0  0  0  0  0  0  0  0  0  0
   -4.2410   -3.0056  -25.8401 H   0  0  0  0  0  0  0  0  0  0  0  0
   -6.4981    1.7357  -26.0533 H   0  0  0  0  0  0  0  0  0  0  0  0
   -6.5025    1.6383  -24.3103 H   0  0  0  0  0  0  0  0  0  0  0  0
   -8.7212    2.3053  -25.4617 H   0  0  0  0  0  0  0  0  0  0  0  0
   -8.8579    0.6632  -25.9942 H   0  0  0  0  0  0  0  0  0  0  0  0
  -10.1644    0.8938  -23.9555 H   0  0  0  0  0  0  0  0  0  0  0  0
   -8.8635    1.7506  -23.1446 H   0  0  0  0  0  0  0  0  0  0  0  0
  1  2  2  0
  2  3  1  0
  3  4  1  0
  4  5  2  0
  5  6  1  0
  6  7  2  0
  7  8  1  0
  8  9  2  0
  9 10  1  0
 10 11  2  0
 11 12  1  0
 12 13  2  0
 12 14  1  0
 11 15  1  0
 10 16  1  0
  9 17  1  0
  7 18  1  0
  5 19  1  0
  3 20  1  0
  3 21  1  0
  2 22  1  0
 22 23  1  0
 23 24  1  0
 24 25  1  0
 25 26  1  0
 26 27  1  0
 27 28  1  0
 28 29  2  0
 29 30  1  0
 30 31  1  0
 31 32  1  0
 31 33  1  0
 29 34  1  0
 28 35  1  0
 25 36  1  0
 25 37  1  0
 24 38  1  0
 24 39  1  0
 23 40  1  0
 23 41  1  0
 13  4  1  0
 31 22  1  0
 13  8  1  0
 30 26  2  0
M  END
>  <cnnaffinities>  (70) 
[5.3012, 5.63881, 5.43547]

>  <score>  (70) 
5.3012

>  <index>  (70) 
72

>  <Smiles>  (70) 
O=C(C(c1c(nc(c2c(c(c(c(c12)[H])[H])[H])[H])[H])[H])([H])[H])N1C(C(C(c2sc(c(c2C1([H])[H])[H])[H])([H])[H])([H])[H])([H])[H]

>  <h>  (70) 
<NA>

>  <Training>  (70) 
True

>  <Success>  (70) 
True

>  <enamine_searched>  (70) 
False

>  <enamine_id>  (70) 
nan

$$$$

     RDKit          3D

 50 53  0  0  0  0  0  0  0  0999 V2000
   -5.6008   -3.0291  -21.5756 O   0  0  0  0  0  0  0  0  0  0  0  0
   -6.7576   -2.7535  -21.8601 C   0  0  0  0  0  0  0  0  0  0  0  0
   -7.4149   -1.4795  -21.2695 C   0  0  0  0  0  0  0  0  0  0  0  0
   -6.5810   -0.8310  -20.1855 C   0  0  0  0  0  0  0  0  0  0  0  0
   -6.8727   -1.0447  -18.8653 C   0  0  0  0  0  0  0  0  0  0  0  0
   -6.1828   -0.5424  -17.8062 N   0  0  0  0  0  0  0  0  0  0  0  0
   -5.1566    0.2233  -18.0695 C   0  0  0  0  0  0  0  0  0  0  0  0
   -4.7184    0.5288  -19.3837 C   0  0  0  0  0  0  0  0  0  0  0  0
   -3.5885    1.3516  -19.6244 C   0  0  0  0  0  0  0  0  0  0  0  0
   -3.1872    1.6313  -20.9001 C   0  0  0  0  0  0  0  0  0  0  0  0
   -3.9046    1.0920  -21.9927 C   0  0  0  0  0  0  0  0  0  0  0  0
   -4.9990    0.2888  -21.7864 C   0  0  0  0  0  0  0  0  0  0  0  0
   -5.4450   -0.0146  -20.4766 C   0  0  0  0  0  0  0  0  0  0  0  0
   -5.5270   -0.1330  -22.6359 H   0  0  0  0  0  0  0  0  0  0  0  0
   -3.5804    1.3173  -23.0033 H   0  0  0  0  0  0  0  0  0  0  0  0
   -2.3284    2.2725  -21.0846 H   0  0  0  0  0  0  0  0  0  0  0  0
   -3.0580    1.7736  -18.7717 H   0  0  0  0  0  0  0  0  0  0  0  0
   -4.6035    0.6274  -17.2167 H   0  0  0  0  0  0  0  0  0  0  0  0
   -7.7183   -1.6680  -18.5828 H   0  0  0  0  0  0  0  0  0  0  0  0
   -7.6153   -0.7495  -22.0659 H   0  0  0  0  0  0  0  0  0  0  0  0
   -8.3953   -1.7472  -20.8488 H   0  0  0  0  0  0  0  0  0  0  0  0
   -7.5202   -3.5824  -22.6611 N   0  0  0  0  0  0  0  0  0  0  0  0
   -8.6627   -3.1243  -23.4505 C   0  0  0  0  0  0  0  0  0  0  0  0
   -9.7327   -4.1994  -23.5638 C   0  0  0  0  0  0  0  0  0  0  0  0
   -9.1575   -5.4964  -24.1063 C   0  0  0  0  0  0  0  0  0  0  0  0
   -7.9844   -5.9344  -23.2420 C   0  0  0  0  0  0  0  0  0  0  0  0
   -6.9118   -4.8510  -23.1006 C   0  0  1  0  0  0  0  0  0  0  0  0
   -6.0425   -4.6961  -24.3694 C   0  0  0  0  0  0  0  0  0  0  0  0
   -5.2088   -5.9204  -24.6879 C   0  0  0  0  0  0  0  0  0  0  0  0
   -4.0476   -6.1893  -23.9578 C   0  0  0  0  0  0  0  0  0  0  0  0
   -3.2853   -7.3206  -24.2198 C   0  0  0  0  0  0  0  0  0  0  0  0
   -3.6708   -8.2119  -25.2173 C   0  0  0  0  0  0  0  0  0  0  0  0
   -4.8280   -7.9610  -25.9495 C   0  0  0  0  0  0  0  0  0  0  0  0
   -5.5857   -6.8250  -25.6831 C   0  0  0  0  0  0  0  0  0  0  0  0
   -6.4941   -6.6399  -26.2531 H   0  0  0  0  0  0  0  0  0  0  0  0
   -5.1414   -8.6463  -26.7320 H   0  0  0  0  0  0  0  0  0  0  0  0
   -3.0714   -9.0921  -25.4256 H   0  0  0  0  0  0  0  0  0  0  0  0
   -2.3830   -7.5086  -23.6439 H   0  0  0  0  0  0  0  0  0  0  0  0
   -3.7420   -5.4960  -23.1769 H   0  0  0  0  0  0  0  0  0  0  0  0
   -6.6845   -4.4567  -25.2239 H   0  0  0  0  0  0  0  0  0  0  0  0
   -5.3802   -3.8381  -24.2148 H   0  0  0  0  0  0  0  0  0  0  0  0
   -6.2391   -5.1508  -22.2982 H   0  0  0  0  0  0  0  0  0  0  0  0
   -8.3499   -6.1919  -22.2444 H   0  0  0  0  0  0  0  0  0  0  0  0
   -7.5383   -6.8519  -23.6376 H   0  0  0  0  0  0  0  0  0  0  0  0
   -9.9261   -6.2710  -24.1409 H   0  0  0  0  0  0  0  0  0  0  0  0
   -8.8349   -5.3714  -25.1467 H   0  0  0  0  0  0  0  0  0  0  0  0
  -10.1654   -4.3762  -22.5766 H   0  0  0  0  0  0  0  0  0  0  0  0
  -10.5499   -3.8468  -24.1986 H   0  0  0  0  0  0  0  0  0  0  0  0
   -9.0838   -2.2315  -22.9917 H   0  0  0  0  0  0  0  0  0  0  0  0
   -8.3548   -2.8300  -24.4651 H   0  0  0  0  0  0  0  0  0  0  0  0
  1  2  2  0
  2  3  1  0
  3  4  1  0
  4  5  2  0
  5  6  1  0
  6  7  2  0
  7  8  1  0
  8  9  2  0
  9 10  1  0
 10 11  2  0
 11 12  1  0
 12 13  2  0
 12 14  1  0
 11 15  1  0
 10 16  1  0
  9 17  1  0
  7 18  1  0
  5 19  1  0
  3 20  1  0
  3 21  1  0
  2 22  1  0
 22 23  1  0
 23 24  1  0
 24 25  1  0
 25 26  1  0
 26 27  1  0
 27 28  1  0
 28 29  1  0
 29 30  2  0
 30 31  1  0
 31 32  2  0
 32 33  1  0
 33 34  2  0
 34 35  1  0
 33 36  1  0
 32 37  1  0
 31 38  1  0
 30 39  1  0
 28 40  1  0
 28 41  1  0
 27 42  1  1
 26 43  1  0
 26 44  1  0
 25 45  1  0
 25 46  1  0
 24 47  1  0
 24 48  1  0
 23 49  1  0
 23 50  1  0
 13  4  1  0
 27 22  1  0
 34 29  1  0
 13  8  1  0
M  END
>  <cnnaffinities>  (71) 
[5.6658]

>  <score>  (71) 
5.6658

>  <index>  (71) 
73

>  <Smiles>  (71) 
O=C(C(c1c(nc(c2c(c(c(c(c12)[H])[H])[H])[H])[H])[H])([H])[H])N1C(C(C(C([C@]1(C(c1c(c(c(c(c1[H])[H])[H])[H])[H])([H])[H])[H])([H])[H])([H])[H])([H])[H])([H])[H]

>  <h>  (71) 
<NA>

>  <Training>  (71) 
True

>  <Success>  (71) 
True

>  <enamine_searched>  (71) 
False

>  <enamine_id>  (71) 
nan

$$$$

     RDKit          3D

 43 47  0  0  0  0  0  0  0  0999 V2000
   -9.4234   -0.4505  -20.9897 O   0  0  0  0  0  0  0  0  0  0  0  0
   -8.7435   -1.3644  -21.3800 C   0  0  0  0  0  0  0  0  0  0  0  0
   -9.1367   -2.4538  -22.1112 N   0  0  0  0  0  0  0  0  0  0  0  0
   -8.0399   -3.1477  -22.7399 C   0  0  1  0  0  0  0  0  0  0  0  0
   -8.1052   -4.6902  -22.7165 C   0  0  0  0  0  0  0  0  0  0  0  0
   -8.2244   -4.7220  -24.2745 C   0  0  2  0  0  0  0  0  0  0  0  0
   -7.1762   -5.5215  -24.9848 C   0  0  0  0  0  0  0  0  0  0  0  0
   -5.8198   -5.2765  -24.7402 C   0  0  0  0  0  0  0  0  0  0  0  0
   -4.8298   -6.0097  -25.3833 C   0  0  0  0  0  0  0  0  0  0  0  0
   -5.1791   -7.0109  -26.2880 C   0  0  0  0  0  0  0  0  0  0  0  0
   -6.5189   -7.2719  -26.5438 C   0  0  0  0  0  0  0  0  0  0  0  0
   -7.4977   -6.5322  -25.8914 C   0  0  0  0  0  0  0  0  0  0  0  0
   -9.1673   -6.9159  -26.2462 Cl  0  0  0  0  0  0  0  0  0  0  0  0
   -6.8232   -8.0380  -27.2495 H   0  0  0  0  0  0  0  0  0  0  0  0
   -4.4105   -7.5864  -26.7962 H   0  0  0  0  0  0  0  0  0  0  0  0
   -3.7860   -5.7918  -25.1768 H   0  0  0  0  0  0  0  0  0  0  0  0
   -5.5448   -4.4937  -24.0301 H   0  0  0  0  0  0  0  0  0  0  0  0
   -8.0355   -3.1700  -24.2979 C   0  0  0  0  0  0  0  0  0  0  0  0
   -8.8570   -2.6029  -24.7511 H   0  0  0  0  0  0  0  0  0  0  0  0
   -7.0981   -2.8276  -24.7556 H   0  0  0  0  0  0  0  0  0  0  0  0
   -9.2253   -5.0178  -24.6027 H   0  0  0  0  0  0  0  0  0  0  0  0
   -8.9690   -5.0680  -22.1625 H   0  0  0  0  0  0  0  0  0  0  0  0
   -7.1934   -5.1497  -22.3163 H   0  0  0  0  0  0  0  0  0  0  0  0
   -6.8395   -2.5168  -22.0520 C   0  0  0  0  0  0  0  0  0  0  0  0
   -5.6779   -2.8075  -22.2246 O   0  0  0  0  0  0  0  0  0  0  0  0
   -7.3398   -1.5166  -21.2074 N   0  0  0  0  0  0  0  0  0  0  0  0
   -6.5834   -0.8584  -20.1893 C   0  0  0  0  0  0  0  0  0  0  0  0
   -6.9069   -1.0597  -18.8693 C   0  0  0  0  0  0  0  0  0  0  0  0
   -6.2086   -0.5450  -17.8307 N   0  0  0  0  0  0  0  0  0  0  0  0
   -5.1738    0.2065  -18.1005 C   0  0  0  0  0  0  0  0  0  0  0  0
   -4.7412    0.5210  -19.4151 C   0  0  0  0  0  0  0  0  0  0  0  0
   -3.6107    1.3513  -19.6412 C   0  0  0  0  0  0  0  0  0  0  0  0
   -3.2232    1.6580  -20.9144 C   0  0  0  0  0  0  0  0  0  0  0  0
   -3.9576    1.1482  -22.0089 C   0  0  0  0  0  0  0  0  0  0  0  0
   -5.0498    0.3382  -21.8154 C   0  0  0  0  0  0  0  0  0  0  0  0
   -5.4678   -0.0127  -20.5018 C   0  0  0  0  0  0  0  0  0  0  0  0
   -5.5998   -0.0504  -22.6662 H   0  0  0  0  0  0  0  0  0  0  0  0
   -3.6527    1.4049  -23.0171 H   0  0  0  0  0  0  0  0  0  0  0  0
   -2.3689    2.3082  -21.0898 H   0  0  0  0  0  0  0  0  0  0  0  0
   -3.0831    1.7539  -18.7816 H   0  0  0  0  0  0  0  0  0  0  0  0
   -4.6257    0.6095  -17.2503 H   0  0  0  0  0  0  0  0  0  0  0  0
   -7.7540   -1.6829  -18.5954 H   0  0  0  0  0  0  0  0  0  0  0  0
  -10.1000   -2.5998  -22.3702 H   0  0  0  0  0  0  0  0  0  0  0  0
  1  2  2  0
  2  3  1  0
  4  3  1  6
  4  5  1  0
  5  6  1  0
  6  7  1  0
  7  8  2  0
  8  9  1  0
  9 10  2  0
 10 11  1  0
 11 12  2  0
 12 13  1  0
 11 14  1  0
 10 15  1  0
  9 16  1  0
  8 17  1  0
  6 18  1  0
 18 19  1  0
 18 20  1  0
  6 21  1  1
  5 22  1  0
  5 23  1  0
  4 24  1  0
 24 25  2  0
 24 26  1  0
 26 27  1  0
 27 28  2  0
 28 29  1  0
 29 30  2  0
 30 31  1  0
 31 32  2  0
 32 33  1  0
 33 34  2  0
 34 35  1  0
 35 36  2  0
 35 37  1  0
 34 38  1  0
 33 39  1  0
 32 40  1  0
 30 41  1  0
 28 42  1  0
  3 43  1  0
 26  2  1  0
 36 27  1  0
 18  4  1  0
 36 31  1  0
 12  7  1  0
M  END
>  <cnnaffinities>  (72) 
[5.7724]

>  <score>  (72) 
5.7724

>  <index>  (72) 
74

>  <Smiles>  (72) 
O=C1N([C@]2(C([C@](c3c(c(c(c(c3Cl)[H])[H])[H])[H])(C2([H])[H])[H])([H])[H])C(=O)N1c1c(nc(c2c(c(c(c(c12)[H])[H])[H])[H])[H])[H])[H]

>  <h>  (72) 
<NA>

>  <Training>  (72) 
True

>  <Success>  (72) 
True

>  <enamine_searched>  (72) 
False

>  <enamine_id>  (72) 
nan

$$$$

     RDKit          3D

 66 71  0  0  0  0  0  0  0  0999 V2000
   -7.4764    3.3238  -21.9213 C   0  0  0  0  0  0  0  0  0  0  0  0
   -8.5447    2.8165  -22.7611 N   0  0  0  0  0  0  0  0  0  0  0  0
   -8.2079    2.0437  -23.8216 C   0  0  0  0  0  0  0  0  0  0  0  0
   -7.0423    1.7755  -24.0767 O   0  0  0  0  0  0  0  0  0  0  0  0
   -9.3719    1.4891  -24.6491 C   0  0  0  0  0  0  0  0  0  0  0  0
   -9.9067    0.3114  -23.9953 N   0  0  0  0  0  0  0  0  0  0  0  0
   -9.1333   -0.9224  -24.0265 C   0  0  0  0  0  0  0  0  0  0  0  0
   -9.2779   -1.7204  -22.7022 C   0  0  2  0  0  0  0  0  0  0  0  0
   -8.6623   -0.8726  -21.5490 C   0  0  0  0  0  0  0  0  0  0  0  0
   -9.1402    0.1109  -21.0195 O   0  0  0  0  0  0  0  0  0  0  0  0
   -7.4431   -1.4085  -21.2091 N   0  0  0  0  0  0  0  0  0  0  0  0
   -6.6391   -0.8206  -20.1997 C   0  0  0  0  0  0  0  0  0  0  0  0
   -6.9465   -1.0470  -18.8810 C   0  0  0  0  0  0  0  0  0  0  0  0
   -6.2295   -0.5707  -17.8373 N   0  0  0  0  0  0  0  0  0  0  0  0
   -5.1861    0.1727  -18.1059 C   0  0  0  0  0  0  0  0  0  0  0  0
   -4.7564    0.4940  -19.4233 C   0  0  0  0  0  0  0  0  0  0  0  0
   -3.6314    1.3282  -19.6551 C   0  0  0  0  0  0  0  0  0  0  0  0
   -3.2555    1.6473  -20.9304 C   0  0  0  0  0  0  0  0  0  0  0  0
   -3.9939    1.1548  -22.0291 C   0  0  0  0  0  0  0  0  0  0  0  0
   -5.0939    0.3497  -21.8325 C   0  0  0  0  0  0  0  0  0  0  0  0
   -5.5016   -0.0098  -20.5177 C   0  0  0  0  0  0  0  0  0  0  0  0
   -5.6776    0.0219  -22.6880 H   0  0  0  0  0  0  0  0  0  0  0  0
   -3.6983    1.4258  -23.0383 H   0  0  0  0  0  0  0  0  0  0  0  0
   -2.4013    2.2969  -21.1027 H   0  0  0  0  0  0  0  0  0  0  0  0
   -3.1005    1.7228  -18.7932 H   0  0  0  0  0  0  0  0  0  0  0  0
   -4.6199    0.5666  -17.2602 H   0  0  0  0  0  0  0  0  0  0  0  0
   -7.8137   -1.6532  -18.6294 H   0  0  0  0  0  0  0  0  0  0  0  0
   -7.0708   -2.5685  -21.9884 C   0  0  0  0  0  0  0  0  0  0  0  0
   -8.3779   -2.9910  -22.6806 C   0  0  2  0  0  0  0  0  0  0  0  0
   -8.0414   -3.7027  -23.9992 C   0  0  0  0  0  0  0  0  0  0  0  0
   -9.2194   -4.1523  -24.6946 N   0  0  0  0  0  0  0  0  0  0  0  0
   -9.2393   -4.8073  -25.9003 C   0  0  0  0  0  0  0  0  0  0  0  0
   -8.0813   -5.2425  -26.5835 C   0  0  0  0  0  0  0  0  0  0  0  0
   -8.1509   -5.9433  -27.7073 N   0  0  0  0  0  0  0  0  0  0  0  0
   -9.3653   -6.2143  -28.1995 C   0  0  0  0  0  0  0  0  0  0  0  0
  -10.4988   -5.7355  -27.5666 C   0  0  0  0  0  0  0  0  0  0  0  0
  -10.4344   -5.0417  -26.4345 N   0  0  0  0  0  0  0  0  0  0  0  0
  -11.4938   -5.8983  -27.9787 H   0  0  0  0  0  0  0  0  0  0  0  0
   -9.4339   -6.8226  -29.0993 H   0  0  0  0  0  0  0  0  0  0  0  0
   -7.0871   -5.0268  -26.1996 H   0  0  0  0  0  0  0  0  0  0  0  0
  -10.1255   -3.9054  -24.3214 H   0  0  0  0  0  0  0  0  0  0  0  0
   -7.3960   -4.5629  -23.7701 H   0  0  0  0  0  0  0  0  0  0  0  0
   -7.4424   -3.0282  -24.6311 H   0  0  0  0  0  0  0  0  0  0  0  0
   -8.8800   -3.7099  -22.0304 H   0  0  0  0  0  0  0  0  0  0  0  0
   -6.2976   -2.3130  -22.7284 H   0  0  0  0  0  0  0  0  0  0  0  0
   -6.6651   -3.3616  -21.3515 H   0  0  0  0  0  0  0  0  0  0  0  0
  -10.7707   -1.9193  -22.4504 C   0  0  0  0  0  0  0  0  0  0  0  0
  -11.3185   -3.0112  -21.7615 C   0  0  0  0  0  0  0  0  0  0  0  0
  -12.6739   -3.0346  -21.4660 C   0  0  0  0  0  0  0  0  0  0  0  0
  -13.3331   -4.2260  -20.3848 Cl  0  0  0  0  0  0  0  0  0  0  0  0
  -13.5388   -2.0460  -21.9268 C   0  0  0  0  0  0  0  0  0  0  0  0
  -13.0062   -0.9449  -22.5615 C   0  0  0  0  0  0  0  0  0  0  0  0
  -11.6355   -0.8650  -22.7887 C   0  0  0  0  0  0  0  0  0  0  0  0
  -11.0917    0.4199  -23.3354 C   0  0  0  0  0  0  0  0  0  0  0  0
  -11.6771    1.4912  -23.2158 O   0  0  0  0  0  0  0  0  0  0  0  0
  -13.6360   -0.1174  -22.8705 H   0  0  0  0  0  0  0  0  0  0  0  0
  -14.6049   -2.1539  -21.7654 H   0  0  0  0  0  0  0  0  0  0  0  0
  -10.7090   -3.8376  -21.4145 H   0  0  0  0  0  0  0  0  0  0  0  0
   -8.0798   -0.6706  -24.1829 H   0  0  0  0  0  0  0  0  0  0  0  0
   -9.4655   -1.5327  -24.8734 H   0  0  0  0  0  0  0  0  0  0  0  0
  -10.1805    2.2175  -24.7571 H   0  0  0  0  0  0  0  0  0  0  0  0
   -9.0025    1.2380  -25.6483 H   0  0  0  0  0  0  0  0  0  0  0  0
   -9.4761    2.7689  -22.3772 H   0  0  0  0  0  0  0  0  0  0  0  0
   -7.8834    3.9932  -21.1599 H   0  0  0  0  0  0  0  0  0  0  0  0
   -6.9229    2.4881  -21.4697 H   0  0  0  0  0  0  0  0  0  0  0  0
   -6.7730    3.8958  -22.5304 H   0  0  0  0  0  0  0  0  0  0  0  0
  1  2  1  0
  2  3  1  0
  3  4  2  0
  3  5  1  0
  5  6  1  0
  6  7  1  0
  8  7  1  6
  8  9  1  0
  9 10  2  0
  9 11  1  0
 11 12  1  0
 12 13  2  0
 13 14  1  0
 14 15  2  0
 15 16  1  0
 16 17  2  0
 17 18  1  0
 18 19  2  0
 19 20  1  0
 20 21  2  0
 20 22  1  0
 19 23  1  0
 18 24  1  0
 17 25  1  0
 15 26  1  0
 13 27  1  0
 11 28  1  0
 28 29  1  0
 29 30  1  0
 30 31  1  0
 31 32  1  0
 32 33  2  0
 33 34  1  0
 34 35  2  0
 35 36  1  0
 36 37  2  0
 36 38  1  0
 35 39  1  0
 33 40  1  0
 31 41  1  0
 30 42  1  0
 30 43  1  0
 29 44  1  1
 28 45  1  0
 28 46  1  0
  8 47  1  0
 47 48  2  0
 48 49  1  0
 49 50  1  0
 49 51  2  0
 51 52  1  0
 52 53  2  0
 53 54  1  0
 54 55  2  0
 52 56  1  0
 51 57  1  0
 48 58  1  0
  7 59  1  0
  7 60  1  0
  5 61  1  0
  5 62  1  0
  2 63  1  0
  1 64  1  0
  1 65  1  0
  1 66  1  0
 54  6  1  0
 29  8  1  0
 37 32  1  0
 53 47  1  0
 21 12  1  0
 21 16  1  0
M  END
>  <cnnaffinities>  (73) 
[6.63082]

>  <score>  (73) 
6.63082

>  <index>  (73) 
75

>  <Smiles>  (73) 
C(N(C(=O)C(N1C([C@@]2(C(=O)N(c3c(nc(c4c(c(c(c(c34)[H])[H])[H])[H])[H])[H])C([C@@]2(C(N(c2c(nc(c(n2)[H])[H])[H])[H])([H])[H])[H])([H])[H])c2c(c(Cl)c(c(c2C1=O)[H])[H])[H])([H])[H])([H])[H])[H])([H])([H])[H]

>  <h>  (73) 
<NA>

>  <Training>  (73) 
True

>  <Success>  (73) 
True

>  <enamine_searched>  (73) 
False

>  <enamine_id>  (73) 
nan

$$$$

     RDKit          3D

 66 71  0  0  0  0  0  0  0  0999 V2000
   -8.1619   -3.7344  -23.9326 C   0  0  0  0  0  0  0  0  0  0  0  0
   -8.3485   -3.0067  -22.6054 C   0  0  1  0  0  0  0  0  0  0  0  0
   -7.0189   -2.5386  -21.9807 C   0  0  0  0  0  0  0  0  0  0  0  0
   -7.4063   -1.3906  -21.1857 N   0  0  0  0  0  0  0  0  0  0  0  0
   -6.6122   -0.8061  -20.1726 C   0  0  0  0  0  0  0  0  0  0  0  0
   -6.9205   -1.0347  -18.8546 C   0  0  0  0  0  0  0  0  0  0  0  0
   -6.2125   -0.5429  -17.8111 N   0  0  0  0  0  0  0  0  0  0  0  0
   -5.1790    0.2138  -18.0866 C   0  0  0  0  0  0  0  0  0  0  0  0
   -4.7557    0.5377  -19.4062 C   0  0  0  0  0  0  0  0  0  0  0  0
   -3.6265    1.3622  -19.6470 C   0  0  0  0  0  0  0  0  0  0  0  0
   -3.2480    1.6665  -20.9245 C   0  0  0  0  0  0  0  0  0  0  0  0
   -3.9826    1.1696  -22.0222 C   0  0  0  0  0  0  0  0  0  0  0  0
   -5.0796    0.3638  -21.8183 C   0  0  0  0  0  0  0  0  0  0  0  0
   -5.4893    0.0168  -20.4995 C   0  0  0  0  0  0  0  0  0  0  0  0
   -5.6259   -0.0117  -22.6789 H   0  0  0  0  0  0  0  0  0  0  0  0
   -3.6742    1.4238  -23.0335 H   0  0  0  0  0  0  0  0  0  0  0  0
   -2.3802    2.2943  -21.1003 H   0  0  0  0  0  0  0  0  0  0  0  0
   -3.0806    1.7465  -18.7905 H   0  0  0  0  0  0  0  0  0  0  0  0
   -4.6001    0.6071  -17.2481 H   0  0  0  0  0  0  0  0  0  0  0  0
   -7.7835   -1.6503  -18.6077 H   0  0  0  0  0  0  0  0  0  0  0  0
   -8.6675   -0.9301  -21.4595 C   0  0  0  0  0  0  0  0  0  0  0  0
   -9.2124   -0.0039  -20.8833 O   0  0  0  0  0  0  0  0  0  0  0  0
   -9.2466   -1.7435  -22.6299 C   0  0  1  0  0  0  0  0  0  0  0  0
   -9.0683   -0.9241  -23.9370 C   0  0  0  0  0  0  0  0  0  0  0  0
   -9.8354    0.3006  -23.8970 N   0  0  0  0  0  0  0  0  0  0  0  0
   -9.2359    1.5459  -24.3045 C   0  0  0  0  0  0  0  0  0  0  0  0
   -8.4282    2.1748  -23.1641 C   0  0  0  0  0  0  0  0  0  0  0  0
   -7.8529    3.4977  -23.5990 N   0  0  0  0  0  4  0  0  0  0  0  0
   -8.7944    4.6439  -23.2680 C   0  0  0  0  0  0  0  0  0  0  0  0
   -8.5130    5.2785  -21.8862 C   0  0  0  0  0  0  0  0  0  0  0  0
   -7.7498    4.4443  -21.0349 O   0  0  0  0  0  0  0  0  0  0  0  0
   -6.4942    4.0322  -21.5548 C   0  0  0  0  0  0  0  0  0  0  0  0
   -6.4867    3.8451  -23.0746 C   0  0  0  0  0  0  0  0  0  0  0  0
   -6.1758    4.7621  -23.5857 H   0  0  0  0  0  0  0  0  0  0  0  0
   -5.7660    3.0638  -23.3401 H   0  0  0  0  0  0  0  0  0  0  0  0
   -5.7215    4.7628  -21.2762 H   0  0  0  0  0  0  0  0  0  0  0  0
   -6.2265    3.0750  -21.0836 H   0  0  0  0  0  0  0  0  0  0  0  0
   -9.4732    5.4658  -21.3860 H   0  0  0  0  0  0  0  0  0  0  0  0
   -8.0294    6.2579  -22.0051 H   0  0  0  0  0  0  0  0  0  0  0  0
   -8.6947    5.3930  -24.0563 H   0  0  0  0  0  0  0  0  0  0  0  0
   -9.8139    4.2478  -23.2987 H   0  0  0  0  0  0  0  0  0  0  0  0
   -7.7687    3.4271  -24.6273 H   0  0  0  0  0  0  0  0  0  0  0  0
   -9.0571    2.3410  -22.2869 H   0  0  0  0  0  0  0  0  0  0  0  0
   -7.6178    1.5060  -22.8603 H   0  0  0  0  0  0  0  0  0  0  0  0
  -10.0480    2.2110  -24.6133 H   0  0  0  0  0  0  0  0  0  0  0  0
   -8.5899    1.3516  -25.1704 H   0  0  0  0  0  0  0  0  0  0  0  0
  -11.0853    0.3531  -23.3673 C   0  0  0  0  0  0  0  0  0  0  0  0
  -11.7299    1.3943  -23.3185 O   0  0  0  0  0  0  0  0  0  0  0  0
  -11.6169   -0.9444  -22.8448 C   0  0  0  0  0  0  0  0  0  0  0  0
  -12.9963   -1.0938  -22.7185 C   0  0  0  0  0  0  0  0  0  0  0  0
  -13.5104   -2.1609  -22.0098 C   0  0  0  0  0  0  0  0  0  0  0  0
  -12.6205   -3.0751  -21.4470 C   0  0  0  0  0  0  0  0  0  0  0  0
  -13.2273   -4.2404  -20.3117 Cl  0  0  0  0  0  0  0  0  0  0  0  0
  -11.2589   -3.0198  -21.6923 C   0  0  0  0  0  0  0  0  0  0  0  0
  -10.7344   -1.9496  -22.4233 C   0  0  0  0  0  0  0  0  0  0  0  0
  -10.6306   -3.7984  -21.2698 H   0  0  0  0  0  0  0  0  0  0  0  0
  -14.5749   -2.2709  -21.8338 H   0  0  0  0  0  0  0  0  0  0  0  0
  -13.6460   -0.3404  -23.1521 H   0  0  0  0  0  0  0  0  0  0  0  0
   -8.0133   -0.6706  -24.1042 H   0  0  0  0  0  0  0  0  0  0  0  0
   -9.4208   -1.5366  -24.7748 H   0  0  0  0  0  0  0  0  0  0  0  0
   -6.2892   -2.2583  -22.7545 H   0  0  0  0  0  0  0  0  0  0  0  0
   -6.5665   -3.3085  -21.3464 H   0  0  0  0  0  0  0  0  0  0  0  0
   -8.7947   -3.7007  -21.8893 H   0  0  0  0  0  0  0  0  0  0  0  0
   -9.1220   -3.9995  -24.3889 H   0  0  0  0  0  0  0  0  0  0  0  0
   -7.6081   -3.1103  -24.6435 H   0  0  0  0  0  0  0  0  0  0  0  0
   -7.5891   -4.6564  -23.7928 H   0  0  0  0  0  0  0  0  0  0  0  0
  1  2  1  0
  2  3  1  0
  3  4  1  0
  4  5  1  0
  5  6  2  0
  6  7  1  0
  7  8  2  0
  8  9  1  0
  9 10  2  0
 10 11  1  0
 11 12  2  0
 12 13  1  0
 13 14  2  0
 13 15  1  0
 12 16  1  0
 11 17  1  0
 10 18  1  0
  8 19  1  0
  6 20  1  0
  4 21  1  0
 21 22  2  0
 21 23  1  0
 23 24  1  6
 24 25  1  0
 25 26  1  0
 26 27  1  0
 27 28  1  0
 28 29  1  0
 29 30  1  0
 30 31  1  0
 31 32  1  0
 32 33  1  0
 33 34  1  0
 33 35  1  0
 32 36  1  0
 32 37  1  0
 30 38  1  0
 30 39  1  0
 29 40  1  0
 29 41  1  0
 28 42  1  0
 27 43  1  0
 27 44  1  0
 26 45  1  0
 26 46  1  0
 25 47  1  0
 47 48  2  0
 47 49  1  0
 49 50  2  0
 50 51  1  0
 51 52  2  0
 52 53  1  0
 52 54  1  0
 54 55  2  0
 54 56  1  0
 51 57  1  0
 50 58  1  0
 24 59  1  0
 24 60  1  0
  3 61  1  0
  3 62  1  0
  2 63  1  1
  1 64  1  0
  1 65  1  0
  1 66  1  0
 23  2  1  0
 33 28  1  0
 55 49  1  0
 14  5  1  0
 55 23  1  0
 14  9  1  0
M  CHG  1  28   1
M  END
>  <cnnaffinities>  (74) 
[6.61271, 6.62075]

>  <score>  (74) 
6.61271

>  <index>  (74) 
76

>  <Smiles>  (74) 
C([C@]1(C(N(c2c(nc(c3c(c(c(c(c23)[H])[H])[H])[H])[H])[H])C(=O)[C@]21C(N(C(C([N+]1(C(C(OC(C1([H])[H])([H])[H])([H])[H])([H])[H])[H])([H])[H])([H])[H])C(=O)c1c(c(c(Cl)c(c21)[H])[H])[H])([H])[H])([H])[H])[H])([H])([H])[H]

>  <h>  (74) 
<NA>

>  <Training>  (74) 
True

>  <Success>  (74) 
True

>  <enamine_searched>  (74) 
False

>  <enamine_id>  (74) 
nan

$$$$

     RDKit          3D

 55 60  0  0  0  0  0  0  0  0999 V2000
  -10.2369   -2.9727  -22.0716 C   0  0  0  0  0  0  0  0  0  0  0  0
   -9.1664   -2.0172  -22.6273 C   0  0  1  0  0  0  0  0  0  0  0  0
   -8.6945   -1.0410  -21.5291 C   0  0  0  0  0  0  0  0  0  0  0  0
   -7.3462   -1.4505  -21.2064 N   0  0  0  0  0  0  0  0  0  0  0  0
   -6.5684   -0.8534  -20.1882 C   0  0  0  0  0  0  0  0  0  0  0  0
   -6.9018   -1.0541  -18.8725 C   0  0  0  0  0  0  0  0  0  0  0  0
   -6.2147   -0.5429  -17.8253 N   0  0  0  0  0  0  0  0  0  0  0  0
   -5.1742    0.2062  -18.0955 C   0  0  0  0  0  0  0  0  0  0  0  0
   -4.7303    0.5096  -19.4140 C   0  0  0  0  0  0  0  0  0  0  0  0
   -3.6079    1.3480  -19.6424 C   0  0  0  0  0  0  0  0  0  0  0  0
   -3.2266    1.6639  -20.9165 C   0  0  0  0  0  0  0  0  0  0  0  0
   -3.9545    1.1602  -22.0200 C   0  0  0  0  0  0  0  0  0  0  0  0
   -5.0387    0.3398  -21.8287 C   0  0  0  0  0  0  0  0  0  0  0  0
   -5.4473   -0.0200  -20.5081 C   0  0  0  0  0  0  0  0  0  0  0  0
   -5.5927   -0.0361  -22.6896 H   0  0  0  0  0  0  0  0  0  0  0  0
   -3.6518    1.4310  -23.0276 H   0  0  0  0  0  0  0  0  0  0  0  0
   -2.3730    2.3148  -21.0862 H   0  0  0  0  0  0  0  0  0  0  0  0
   -3.0839    1.7502  -18.7794 H   0  0  0  0  0  0  0  0  0  0  0  0
   -4.6247    0.6161  -17.2484 H   0  0  0  0  0  0  0  0  0  0  0  0
   -7.7588   -1.6797  -18.6219 H   0  0  0  0  0  0  0  0  0  0  0  0
   -6.8243   -2.3977  -22.0496 C   0  0  0  0  0  0  0  0  0  0  0  0
   -5.7247   -2.9005  -21.9206 O   0  0  0  0  0  0  0  0  0  0  0  0
   -7.8618   -2.6813  -23.1566 C   0  0  1  0  0  0  0  0  0  0  0  0
   -7.9672   -4.1941  -23.3496 C   0  0  0  0  0  0  0  0  0  0  0  0
   -6.7081   -4.6774  -23.8827 N   0  0  0  0  0  0  0  0  0  0  0  0
   -6.2307   -5.9587  -23.4046 C   0  0  0  0  0  0  0  0  0  0  0  0
   -7.0583   -7.0656  -23.9868 C   0  0  0  0  0  0  0  0  0  0  0  0
   -7.0194   -7.5624  -25.2439 C   0  0  0  0  0  0  0  0  0  0  0  0
   -8.1868   -8.2312  -25.4581 O   0  0  0  0  0  0  0  0  0  0  0  0
   -8.8502   -8.1479  -24.2860 C   0  0  0  0  0  0  0  0  0  0  0  0
   -8.2321   -7.4890  -23.3568 N   0  0  0  0  0  0  0  0  0  0  0  0
   -9.7981   -8.6748  -24.2484 H   0  0  0  0  0  0  0  0  0  0  0  0
   -6.2694   -7.6171  -26.0282 H   0  0  0  0  0  0  0  0  0  0  0  0
   -5.1778   -6.0308  -23.6872 H   0  0  0  0  0  0  0  0  0  0  0  0
   -6.2962   -5.9375  -22.3101 H   0  0  0  0  0  0  0  0  0  0  0  0
   -6.2515   -4.2332  -25.0926 C   0  0  0  0  0  0  0  0  0  0  0  0
   -5.5459   -4.9105  -25.8337 O   0  0  0  0  0  0  0  0  0  0  0  0
   -6.6381   -2.8312  -25.3981 C   0  0  0  0  0  0  0  0  0  0  0  0
   -6.1762   -2.2817  -26.5910 C   0  0  0  0  0  0  0  0  0  0  0  0
   -6.3972   -0.9456  -26.8586 C   0  0  0  0  0  0  0  0  0  0  0  0
   -7.0774   -0.1825  -25.9150 C   0  0  0  0  0  0  0  0  0  0  0  0
   -7.2696    1.1269  -26.1638 F   0  0  0  0  0  0  0  0  0  0  0  0
   -7.5599   -0.7157  -24.7358 C   0  0  0  0  0  0  0  0  0  0  0  0
   -7.3684   -2.0767  -24.4708 C   0  0  0  0  0  0  0  0  0  0  0  0
   -8.0768   -0.0562  -24.0455 H   0  0  0  0  0  0  0  0  0  0  0  0
   -6.0371   -0.4715  -27.7606 H   0  0  0  0  0  0  0  0  0  0  0  0
   -5.6246   -2.9376  -27.2605 H   0  0  0  0  0  0  0  0  0  0  0  0
   -8.7956   -4.4251  -24.0386 H   0  0  0  0  0  0  0  0  0  0  0  0
   -8.1488   -4.6973  -22.3951 H   0  0  0  0  0  0  0  0  0  0  0  0
   -9.3363   -1.1243  -20.6572 H   0  0  0  0  0  0  0  0  0  0  0  0
   -8.7088    0.0066  -21.8550 H   0  0  0  0  0  0  0  0  0  0  0  0
   -9.6408   -1.4759  -23.4545 H   0  0  0  0  0  0  0  0  0  0  0  0
  -11.0898   -2.3977  -21.6923 H   0  0  0  0  0  0  0  0  0  0  0  0
   -9.8492   -3.5778  -21.2434 H   0  0  0  0  0  0  0  0  0  0  0  0
  -10.6179   -3.6483  -22.8438 H   0  0  0  0  0  0  0  0  0  0  0  0
  1  2  1  0
  2  3  1  0
  3  4  1  0
  4  5  1  0
  5  6  2  0
  6  7  1  0
  7  8  2  0
  8  9  1  0
  9 10  2  0
 10 11  1  0
 11 12  2  0
 12 13  1  0
 13 14  2  0
 13 15  1  0
 12 16  1  0
 11 17  1  0
 10 18  1  0
  8 19  1  0
  6 20  1  0
  4 21  1  0
 21 22  2  0
 21 23  1  0
 23 24  1  6
 24 25  1  0
 25 26  1  0
 26 27  1  0
 27 28  2  0
 28 29  1  0
 29 30  1  0
 30 31  2  0
 30 32  1  0
 28 33  1  0
 26 34  1  0
 26 35  1  0
 25 36  1  0
 36 37  2  0
 36 38  1  0
 38 39  2  0
 39 40  1  0
 40 41  2  0
 41 42  1  0
 41 43  1  0
 43 44  2  0
 43 45  1  0
 40 46  1  0
 39 47  1  0
 24 48  1  0
 24 49  1  0
  3 50  1  0
  3 51  1  0
  2 52  1  6
  1 53  1  0
  1 54  1  0
  1 55  1  0
 23  2  1  0
 31 27  1  0
 44 38  1  0
 14  5  1  0
 44 23  1  0
 14  9  1  0
M  END
>  <cnnaffinities>  (75) 
[5.92207, 6.60581]

>  <score>  (75) 
5.92207

>  <index>  (75) 
77

>  <Smiles>  (75) 
C([C@]1(C(N(c2c(nc(c3c(c(c(c(c23)[H])[H])[H])[H])[H])[H])C(=O)[C@]21C(N(C(c1c(oc(n1)[H])[H])([H])[H])C(=O)c1c(c(c(F)c(c21)[H])[H])[H])([H])[H])([H])[H])[H])([H])([H])[H]

>  <h>  (75) 
<NA>

>  <Training>  (75) 
True

>  <Success>  (75) 
True

>  <enamine_searched>  (75) 
False

>  <enamine_id>  (75) 
nan

$$$$

     RDKit          3D

 56 60  0  0  0  0  0  0  0  0999 V2000
  -14.4762   -0.4459  -22.7022 C   0  0  0  0  0  0  0  0  0  0  0  0
  -13.5440   -1.3748  -22.0760 N   0  0  0  0  0  0  0  0  0  0  0  0
  -13.4466   -2.6457  -22.5804 C   0  0  0  0  0  0  0  0  0  0  0  0
  -14.1252   -2.9857  -23.5360 O   0  0  0  0  0  0  0  0  0  0  0  0
  -12.4940   -3.6074  -21.8342 C   0  0  0  0  0  0  0  0  0  0  0  0
  -11.1145   -3.6321  -22.3362 N   0  0  0  0  0  0  0  0  0  0  0  0
  -10.0119   -3.0745  -21.5638 C   0  0  0  0  0  0  0  0  0  0  0  0
   -8.7671   -2.6946  -22.4186 C   0  0  2  0  0  0  0  0  0  0  0  0
   -7.6036   -2.5557  -21.4206 C   0  0  0  0  0  0  0  0  0  0  0  0
   -7.0060   -3.4550  -20.8581 O   0  0  0  0  0  0  0  0  0  0  0  0
   -7.3413   -1.2205  -21.2242 N   0  0  0  0  0  0  0  0  0  0  0  0
   -6.5179   -0.7867  -20.1643 C   0  0  0  0  0  0  0  0  0  0  0  0
   -6.7943   -1.1131  -18.8619 C   0  0  0  0  0  0  0  0  0  0  0  0
   -6.1188   -0.5977  -17.8052 N   0  0  0  0  0  0  0  0  0  0  0  0
   -5.1278    0.2233  -18.0506 C   0  0  0  0  0  0  0  0  0  0  0  0
   -4.6892    0.5762  -19.3614 C   0  0  0  0  0  0  0  0  0  0  0  0
   -3.5706    1.4157  -19.6109 C   0  0  0  0  0  0  0  0  0  0  0  0
   -3.1987    1.7120  -20.8928 C   0  0  0  0  0  0  0  0  0  0  0  0
   -3.9083    1.1786  -21.9898 C   0  0  0  0  0  0  0  0  0  0  0  0
   -4.9865    0.3557  -21.7780 C   0  0  0  0  0  0  0  0  0  0  0  0
   -5.4051    0.0545  -20.4567 C   0  0  0  0  0  0  0  0  0  0  0  0
   -5.5172   -0.0878  -22.6125 H   0  0  0  0  0  0  0  0  0  0  0  0
   -3.6071    1.4225  -23.0029 H   0  0  0  0  0  0  0  0  0  0  0  0
   -2.3540    2.3703  -21.0801 H   0  0  0  0  0  0  0  0  0  0  0  0
   -3.0274    1.8284  -18.7671 H   0  0  0  0  0  0  0  0  0  0  0  0
   -4.6113    0.6395  -17.1845 H   0  0  0  0  0  0  0  0  0  0  0  0
   -7.5971   -1.8083  -18.6232 H   0  0  0  0  0  0  0  0  0  0  0  0
   -8.3229   -0.3563  -21.8589 C   0  0  0  0  0  0  0  0  0  0  0  0
   -8.8620   -1.2378  -22.9984 C   0  0  2  0  0  0  0  0  0  0  0  0
  -10.2272   -0.8005  -23.5153 C   0  0  0  0  0  0  0  0  0  0  0  0
  -10.1634    0.1846  -23.9901 H   0  0  0  0  0  0  0  0  0  0  0  0
  -10.6071   -1.5177  -24.2467 H   0  0  0  0  0  0  0  0  0  0  0  0
  -10.9736   -0.7414  -22.7181 H   0  0  0  0  0  0  0  0  0  0  0  0
   -8.1455   -1.1895  -23.8335 H   0  0  0  0  0  0  0  0  0  0  0  0
   -9.1205   -0.0703  -21.1475 H   0  0  0  0  0  0  0  0  0  0  0  0
   -7.8523    0.5651  -22.2108 H   0  0  0  0  0  0  0  0  0  0  0  0
   -8.4767   -3.7768  -23.4444 C   0  0  0  0  0  0  0  0  0  0  0  0
   -7.1946   -3.9634  -23.9935 C   0  0  0  0  0  0  0  0  0  0  0  0
   -6.9723   -4.9576  -24.9357 C   0  0  0  0  0  0  0  0  0  0  0  0
   -5.3825   -5.1901  -25.6107 Cl  0  0  0  0  0  0  0  0  0  0  0  0
   -7.9915   -5.8065  -25.3676 C   0  0  0  0  0  0  0  0  0  0  0  0
   -9.2488   -5.6307  -24.8286 C   0  0  0  0  0  0  0  0  0  0  0  0
   -9.4836   -4.6400  -23.8712 C   0  0  0  0  0  0  0  0  0  0  0  0
  -10.8532   -4.5718  -23.2949 C   0  0  0  0  0  0  0  0  0  0  0  0
  -11.7132   -5.3417  -23.6734 O   0  0  0  0  0  0  0  0  0  0  0  0
  -10.0780   -6.2679  -25.1228 H   0  0  0  0  0  0  0  0  0  0  0  0
   -7.7817   -6.5837  -26.1002 H   0  0  0  0  0  0  0  0  0  0  0  0
   -6.3502   -3.3658  -23.6654 H   0  0  0  0  0  0  0  0  0  0  0  0
   -9.6493   -3.7864  -20.8089 H   0  0  0  0  0  0  0  0  0  0  0  0
  -10.3904   -2.1754  -21.0673 H   0  0  0  0  0  0  0  0  0  0  0  0
  -12.5049   -3.3909  -20.7594 H   0  0  0  0  0  0  0  0  0  0  0  0
  -12.9218   -4.5998  -22.0006 H   0  0  0  0  0  0  0  0  0  0  0  0
  -13.2962   -1.2044  -21.1132 H   0  0  0  0  0  0  0  0  0  0  0  0
  -15.5205   -0.7726  -22.6268 H   0  0  0  0  0  0  0  0  0  0  0  0
  -14.3711    0.5310  -22.2295 H   0  0  0  0  0  0  0  0  0  0  0  0
  -14.2401   -0.3270  -23.7640 H   0  0  0  0  0  0  0  0  0  0  0  0
  1  2  1  0
  2  3  1  0
  3  4  2  0
  3  5  1  0
  5  6  1  0
  6  7  1  0
  8  7  1  1
  8  9  1  0
  9 10  2  0
  9 11  1  0
 11 12  1  0
 12 13  2  0
 13 14  1  0
 14 15  2  0
 15 16  1  0
 16 17  2  0
 17 18  1  0
 18 19  2  0
 19 20  1  0
 20 21  2  0
 20 22  1  0
 19 23  1  0
 18 24  1  0
 17 25  1  0
 15 26  1  0
 13 27  1  0
 11 28  1  0
 28 29  1  0
 29 30  1  0
 30 31  1  0
 30 32  1  0
 30 33  1  0
 29 34  1  6
 28 35  1  0
 28 36  1  0
  8 37  1  0
 37 38  2  0
 38 39  1  0
 39 40  1  0
 39 41  2  0
 41 42  1  0
 42 43  2  0
 43 44  1  0
 44 45  2  0
 42 46  1  0
 41 47  1  0
 38 48  1  0
  7 49  1  0
  7 50  1  0
  5 51  1  0
  5 52  1  0
  2 53  1  0
  1 54  1  0
  1 55  1  0
  1 56  1  0
 44  6  1  0
 29  8  1  0
 43 37  1  0
 21 12  1  0
 21 16  1  0
M  END
>  <cnnaffinities>  (76) 
[6.50531]

>  <score>  (76) 
6.50531

>  <index>  (76) 
78

>  <Smiles>  (76) 
C(N(C(=O)C(N1C([C@@]2(C(=O)N(c3c(nc(c4c(c(c(c(c34)[H])[H])[H])[H])[H])[H])C([C@@]2(C([H])([H])[H])[H])([H])[H])c2c(c(Cl)c(c(c2C1=O)[H])[H])[H])([H])[H])([H])[H])[H])([H])([H])[H]

>  <h>  (76) 
<NA>

>  <Training>  (76) 
True

>  <Success>  (76) 
True

>  <enamine_searched>  (76) 
False

>  <enamine_id>  (76) 
nan

$$$$

     RDKit          3D

 45 49  0  0  0  0  0  0  0  0999 V2000
  -10.5560   -2.7527  -22.4775 C   0  0  0  0  0  0  0  0  0  0  0  0
   -9.1619   -2.4801  -22.1635 N   0  0  0  0  0  0  0  0  0  0  0  0
   -8.7605   -1.4120  -21.3979 C   0  0  0  0  0  0  0  0  0  0  0  0
   -9.4448   -0.4990  -21.0011 O   0  0  0  0  0  0  0  0  0  0  0  0
   -7.3619   -1.5474  -21.2144 N   0  0  0  0  0  0  0  0  0  0  0  0
   -6.5971   -0.8697  -20.2021 C   0  0  0  0  0  0  0  0  0  0  0  0
   -6.9075   -1.0627  -18.8775 C   0  0  0  0  0  0  0  0  0  0  0  0
   -6.2084   -0.5455  -17.8358 N   0  0  0  0  0  0  0  0  0  0  0  0
   -5.1741    0.2077  -18.0992 C   0  0  0  0  0  0  0  0  0  0  0  0
   -4.7434    0.5200  -19.4162 C   0  0  0  0  0  0  0  0  0  0  0  0
   -3.6108    1.3530  -19.6406 C   0  0  0  0  0  0  0  0  0  0  0  0
   -3.2223    1.6609  -20.9137 C   0  0  0  0  0  0  0  0  0  0  0  0
   -3.9571    1.1507  -22.0071 C   0  0  0  0  0  0  0  0  0  0  0  0
   -5.0496    0.3409  -21.8133 C   0  0  0  0  0  0  0  0  0  0  0  0
   -5.4748   -0.0165  -20.5039 C   0  0  0  0  0  0  0  0  0  0  0  0
   -5.5980   -0.0456  -22.6647 H   0  0  0  0  0  0  0  0  0  0  0  0
   -3.6534    1.4058  -23.0167 H   0  0  0  0  0  0  0  0  0  0  0  0
   -2.3686    2.3109  -21.0904 H   0  0  0  0  0  0  0  0  0  0  0  0
   -3.0805    1.7572  -18.7812 H   0  0  0  0  0  0  0  0  0  0  0  0
   -4.6242    0.6111  -17.2469 H   0  0  0  0  0  0  0  0  0  0  0  0
   -7.7531   -1.6826  -18.5962 H   0  0  0  0  0  0  0  0  0  0  0  0
   -6.8556   -2.5337  -22.0592 C   0  0  0  0  0  0  0  0  0  0  0  0
   -5.6905   -2.8114  -22.2157 O   0  0  0  0  0  0  0  0  0  0  0  0
   -8.0503   -3.1756  -22.7545 C   0  0  0  0  0  0  0  0  0  0  0  0
   -8.0323   -4.7158  -22.7404 C   0  0  0  0  0  0  0  0  0  0  0  0
   -7.8943   -4.7484  -24.2401 N   0  0  0  0  0  0  0  0  0  0  0  0
   -9.1549   -5.5863  -24.9927 S   0  0  0  0  0  0  0  0  0  0  0  0
  -10.3770   -4.9042  -24.5863 O   0  0  0  0  0  0  0  0  0  0  0  0
   -8.9689   -6.9911  -24.7056 O   0  0  0  0  0  0  0  0  0  0  0  0
   -8.9850   -5.3273  -26.7459 C   0  0  0  0  0  0  0  0  0  0  0  0
  -10.2164   -5.6097  -27.5789 C   0  0  0  0  0  0  0  0  0  0  0  0
   -9.7504   -4.1980  -27.3885 C   0  0  0  0  0  0  0  0  0  0  0  0
   -9.2767   -3.6984  -28.2300 H   0  0  0  0  0  0  0  0  0  0  0  0
  -10.3274   -3.5485  -26.7301 H   0  0  0  0  0  0  0  0  0  0  0  0
  -10.0657   -6.0833  -28.5484 H   0  0  0  0  0  0  0  0  0  0  0  0
  -11.1154   -5.9379  -27.0584 H   0  0  0  0  0  0  0  0  0  0  0  0
   -8.0033   -5.6088  -27.1179 H   0  0  0  0  0  0  0  0  0  0  0  0
   -7.9707   -3.2621  -24.3014 C   0  0  0  0  0  0  0  0  0  0  0  0
   -8.8377   -2.8574  -24.8369 H   0  0  0  0  0  0  0  0  0  0  0  0
   -7.0530   -2.8574  -24.7224 H   0  0  0  0  0  0  0  0  0  0  0  0
   -7.1501   -5.1351  -22.2603 H   0  0  0  0  0  0  0  0  0  0  0  0
   -8.9420   -5.1729  -22.3391 H   0  0  0  0  0  0  0  0  0  0  0  0
  -10.7578   -2.5934  -23.5440 H   0  0  0  0  0  0  0  0  0  0  0  0
  -10.8242   -3.7863  -22.2231 H   0  0  0  0  0  0  0  0  0  0  0  0
  -11.1495   -2.0595  -21.8803 H   0  0  0  0  0  0  0  0  0  0  0  0
  1  2  1  0
  2  3  1  0
  3  4  2  0
  3  5  1  0
  5  6  1  0
  6  7  2  0
  7  8  1  0
  8  9  2  0
  9 10  1  0
 10 11  2  0
 11 12  1  0
 12 13  2  0
 13 14  1  0
 14 15  2  0
 14 16  1  0
 13 17  1  0
 12 18  1  0
 11 19  1  0
  9 20  1  0
  7 21  1  0
  5 22  1  0
 22 23  2  0
 22 24  1  0
 24 25  1  0
 25 26  1  0
 26 27  1  0
 27 28  2  0
 27 29  2  0
 27 30  1  0
 30 31  1  0
 31 32  1  0
 32 33  1  0
 32 34  1  0
 31 35  1  0
 31 36  1  0
 30 37  1  0
 26 38  1  0
 38 39  1  0
 38 40  1  0
 25 41  1  0
 25 42  1  0
  1 43  1  0
  1 44  1  0
  1 45  1  0
 24  2  1  0
 32 30  1  0
 15  6  1  0
 38 24  1  0
 15 10  1  0
M  END
>  <cnnaffinities>  (77) 
[5.13646, 5.14079, 5.14277, 5.25352, 5.33232, 5.1222, 5.11579, 5.37721]

>  <score>  (77) 
5.13646

>  <index>  (77) 
79

>  <Smiles>  (77) 
C(N1C(=O)N(c2c(nc(c3c(c(c(c(c23)[H])[H])[H])[H])[H])[H])C(=O)C21C(N(S(=O)(=O)C1(C(C1([H])[H])([H])[H])[H])C2([H])[H])([H])[H])([H])([H])[H]

>  <h>  (77) 
<NA>

>  <Training>  (77) 
True

>  <Success>  (77) 
True

>  <enamine_searched>  (77) 
False

>  <enamine_id>  (77) 
nan

$$$$

     RDKit          3D

 60 65  0  0  0  0  0  0  0  0999 V2000
   -2.6817   -6.7633  -22.7455 C   0  0  0  0  0  0  0  0  0  0  0  0
   -3.9451   -6.1659  -22.3084 N   0  0  0  0  0  0  0  0  0  0  0  0
   -4.9799   -6.9839  -22.0299 C   0  0  0  0  0  0  0  0  0  0  0  0
   -4.9143   -8.1807  -22.0116 O   0  0  0  0  0  0  0  0  0  0  0  0
   -6.6646   -6.0248  -21.5007 C   0  0  0  0  0  0  0  0  0  0  0  0
   -7.5114   -5.5099  -22.5943 N   0  0  0  0  0  0  0  0  0  0  0  0
   -8.4636   -4.4198  -22.3497 C   0  0  0  0  0  0  0  0  0  0  0  0
   -7.9921   -3.0434  -22.8737 C   0  0  2  0  0  0  0  0  0  0  0  0
   -6.8385   -2.4845  -22.0080 C   0  0  0  0  0  0  0  0  0  0  0  0
   -5.6816   -2.8557  -22.0254 O   0  0  0  0  0  0  0  0  0  0  0  0
   -7.3229   -1.4642  -21.2141 N   0  0  0  0  0  0  0  0  0  0  0  0
   -6.5547   -0.8609  -20.1921 C   0  0  0  0  0  0  0  0  0  0  0  0
   -6.8918   -1.0537  -18.8753 C   0  0  0  0  0  0  0  0  0  0  0  0
   -6.2107   -0.5434  -17.8229 N   0  0  0  0  0  0  0  0  0  0  0  0
   -5.1697    0.2078  -18.0830 C   0  0  0  0  0  0  0  0  0  0  0  0
   -4.7221    0.5109  -19.4005 C   0  0  0  0  0  0  0  0  0  0  0  0
   -3.5962    1.3459  -19.6276 C   0  0  0  0  0  0  0  0  0  0  0  0
   -3.2179    1.6659  -20.9030 C   0  0  0  0  0  0  0  0  0  0  0  0
   -3.9407    1.1623  -22.0065 C   0  0  0  0  0  0  0  0  0  0  0  0
   -5.0201    0.3352  -21.8132 C   0  0  0  0  0  0  0  0  0  0  0  0
   -5.4349   -0.0203  -20.4986 C   0  0  0  0  0  0  0  0  0  0  0  0
   -5.5659   -0.0607  -22.6639 H   0  0  0  0  0  0  0  0  0  0  0  0
   -3.6420    1.4390  -23.0141 H   0  0  0  0  0  0  0  0  0  0  0  0
   -2.3706    2.3250  -21.0732 H   0  0  0  0  0  0  0  0  0  0  0  0
   -3.0645    1.7444  -18.7675 H   0  0  0  0  0  0  0  0  0  0  0  0
   -4.6261    0.6220  -17.2328 H   0  0  0  0  0  0  0  0  0  0  0  0
   -7.7431   -1.6863  -18.6268 H   0  0  0  0  0  0  0  0  0  0  0  0
   -8.7663   -1.3357  -21.2867 C   0  0  0  0  0  0  0  0  0  0  0  0
   -9.1098   -1.9759  -22.6415 C   0  0  2  0  0  0  0  0  0  0  0  0
  -10.5531   -2.4700  -22.6948 C   0  0  0  0  0  0  0  0  0  0  0  0
  -10.7746   -3.1499  -21.8629 H   0  0  0  0  0  0  0  0  0  0  0  0
  -11.2533   -1.6324  -22.6213 H   0  0  0  0  0  0  0  0  0  0  0  0
  -10.7594   -3.0052  -23.6280 H   0  0  0  0  0  0  0  0  0  0  0  0
   -8.9813   -1.2019  -23.3994 H   0  0  0  0  0  0  0  0  0  0  0  0
   -9.0645   -0.2841  -21.2314 H   0  0  0  0  0  0  0  0  0  0  0  0
   -9.2629   -1.8750  -20.4670 H   0  0  0  0  0  0  0  0  0  0  0  0
   -7.5031   -3.2486  -24.2993 C   0  0  0  0  0  0  0  0  0  0  0  0
   -7.3710   -2.1474  -25.1500 C   0  0  0  0  0  0  0  0  0  0  0  0
   -6.9275   -2.3134  -26.4481 C   0  0  0  0  0  0  0  0  0  0  0  0
   -6.8184   -0.9200  -27.4864 Cl  0  0  0  0  0  0  0  0  0  0  0  0
   -6.5693   -3.5651  -26.9414 C   0  0  0  0  0  0  0  0  0  0  0  0
   -6.6254   -4.6509  -26.0894 C   0  0  0  0  0  0  0  0  0  0  0  0
   -7.0615   -4.5038  -24.7632 C   0  0  0  0  0  0  0  0  0  0  0  0
   -6.9637   -5.6807  -23.8376 C   0  0  0  0  0  0  0  0  0  0  0  0
   -6.3881   -6.7179  -24.1415 O   0  0  0  0  0  0  0  0  0  0  0  0
   -6.3085   -5.6290  -26.4342 H   0  0  0  0  0  0  0  0  0  0  0  0
   -6.2326   -3.6698  -27.9662 H   0  0  0  0  0  0  0  0  0  0  0  0
   -7.5969   -1.1451  -24.8069 H   0  0  0  0  0  0  0  0  0  0  0  0
   -9.4195   -4.6918  -22.8170 H   0  0  0  0  0  0  0  0  0  0  0  0
   -8.6243   -4.3676  -21.2751 H   0  0  0  0  0  0  0  0  0  0  0  0
   -6.9440   -6.2914  -21.3407 C   0  0  0  0  0  0  0  0  0  0  0  0
   -5.9614   -5.3856  -20.4007 C   0  0  0  0  0  0  0  0  0  0  0  0
   -5.4736   -6.0798  -19.7752 H   0  0  0  0  0  0  0  0  0  0  0  0
   -6.5253   -4.5573  -20.0341 H   0  0  0  0  0  0  0  0  0  0  0  0
   -7.8623   -6.4741  -20.7659 H   0  0  0  0  0  0  0  0  0  0  0  0
   -7.2464   -7.3898  -21.5418 H   0  0  0  0  0  0  0  0  0  0  0  0
   -4.0350   -5.1517  -22.3429 H   0  0  0  0  0  0  0  0  0  0  0  0
   -2.3515   -7.5099  -22.0145 H   0  0  0  0  0  0  0  0  0  0  0  0
   -2.8024   -7.2854  -23.7023 H   0  0  0  0  0  0  0  0  0  0  0  0
   -1.9231   -5.9868  -22.8431 H   0  0  0  0  0  0  0  0  0  0  0  0
  1  2  1  0
  2  3  1  0
  3  4  2  0
  3  5  1  0
  5  6  1  0
  6  7  1  0
  8  7  1  1
  8  9  1  0
  9 10  2  0
  9 11  1  0
 11 12  1  0
 12 13  2  0
 13 14  1  0
 14 15  2  0
 15 16  1  0
 16 17  2  0
 17 18  1  0
 18 19  2  0
 19 20  1  0
 20 21  2  0
 20 22  1  0
 19 23  1  0
 18 24  1  0
 17 25  1  0
 15 26  1  0
 13 27  1  0
 11 28  1  0
 28 29  1  0
 29 30  1  0
 30 31  1  0
 30 32  1  0
 30 33  1  0
 29 34  1  6
 28 35  1  0
 28 36  1  0
  8 37  1  0
 37 38  2  0
 38 39  1  0
 39 40  1  0
 39 41  2  0
 41 42  1  0
 42 43  2  0
 43 44  1  0
 44 45  2  0
 42 46  1  0
 41 47  1  0
 38 48  1  0
  7 49  1  0
  7 50  1  0
  5 51  1  0
 51 52  1  0
 52 53  1  0
 52 54  1  0
 51 55  1  0
 51 56  1  0
  2 57  1  0
  1 58  1  0
  1 59  1  0
  1 60  1  0
 52  5  1  0
 44  6  1  0
 29  8  1  0
 43 37  1  0
 21 12  1  0
 21 16  1  0
M  END
>  <cnnaffinities>  (78) 
[5.95711]

>  <score>  (78) 
5.95711

>  <index>  (78) 
80

>  <Smiles>  (78) 
C(N(C(=O)C1(N2C([C@@]3(C(=O)N(c4c(nc(c5c(c(c(c(c45)[H])[H])[H])[H])[H])[H])C([C@@]3(C([H])([H])[H])[H])([H])[H])c3c(c(Cl)c(c(c3C2=O)[H])[H])[H])([H])[H])C(C1([H])[H])([H])[H])[H])([H])([H])[H]

>  <h>  (78) 
<NA>

>  <Training>  (78) 
True

>  <Success>  (78) 
True

>  <enamine_searched>  (78) 
False

>  <enamine_id>  (78) 
nan

$$$$

     RDKit          3D

 36 38  0  0  0  0  0  0  0  0999 V2000
   -8.5060    0.7126  -21.4632 O   0  0  0  0  0  0  0  0  0  0  0  0
   -8.3813   -0.4017  -21.9282 C   0  0  0  0  0  0  0  0  0  0  0  0
   -7.4376   -1.4332  -21.2745 C   0  0  0  0  0  0  0  0  0  0  0  0
   -6.5818   -0.8272  -20.1855 C   0  0  0  0  0  0  0  0  0  0  0  0
   -6.8785   -1.0390  -18.8639 C   0  0  0  0  0  0  0  0  0  0  0  0
   -6.1887   -0.5361  -17.8061 N   0  0  0  0  0  0  0  0  0  0  0  0
   -5.1546    0.2224  -18.0686 C   0  0  0  0  0  0  0  0  0  0  0  0
   -4.7223    0.5333  -19.3844 C   0  0  0  0  0  0  0  0  0  0  0  0
   -3.5949    1.3601  -19.6234 C   0  0  0  0  0  0  0  0  0  0  0  0
   -3.2075    1.6566  -20.9025 C   0  0  0  0  0  0  0  0  0  0  0  0
   -3.9354    1.1327  -21.9940 C   0  0  0  0  0  0  0  0  0  0  0  0
   -5.0277    0.3239  -21.7879 C   0  0  0  0  0  0  0  0  0  0  0  0
   -5.4544    0.0008  -20.4743 C   0  0  0  0  0  0  0  0  0  0  0  0
   -5.5776   -0.0678  -22.6366 H   0  0  0  0  0  0  0  0  0  0  0  0
   -3.6263    1.3767  -23.0049 H   0  0  0  0  0  0  0  0  0  0  0  0
   -2.3540    2.3043  -21.0856 H   0  0  0  0  0  0  0  0  0  0  0  0
   -3.0597    1.7750  -18.7729 H   0  0  0  0  0  0  0  0  0  0  0  0
   -4.6025    0.6264  -17.2172 H   0  0  0  0  0  0  0  0  0  0  0  0
   -7.7278   -1.6584  -18.5830 H   0  0  0  0  0  0  0  0  0  0  0  0
   -8.0415   -2.2451  -20.8447 H   0  0  0  0  0  0  0  0  0  0  0  0
   -6.8038   -1.8994  -22.0414 H   0  0  0  0  0  0  0  0  0  0  0  0
   -9.0579   -0.7718  -23.0801 N   0  0  0  0  0  0  0  0  0  0  0  0
   -9.3676   -2.1584  -23.4033 C   0  0  0  0  0  0  0  0  0  0  0  0
  -10.4468   -2.7799  -22.5507 C   0  0  0  0  0  0  0  0  0  0  0  0
  -11.5722   -2.1767  -22.1583 C   0  0  0  0  0  0  0  0  0  0  0  0
  -12.0263   -0.7966  -22.4306 C   0  0  0  0  0  0  0  0  0  0  0  0
  -11.3796    0.2124  -23.0253 C   0  0  0  0  0  0  0  0  0  0  0  0
   -9.9957    0.2012  -23.6296 C   0  0  0  0  0  0  0  0  0  0  0  0
   -9.5526    1.1987  -23.5782 H   0  0  0  0  0  0  0  0  0  0  0  0
  -10.0553   -0.0231  -24.6966 H   0  0  0  0  0  0  0  0  0  0  0  0
  -11.8927    1.1756  -23.0808 H   0  0  0  0  0  0  0  0  0  0  0  0
  -13.0214   -0.5818  -22.0424 H   0  0  0  0  0  0  0  0  0  0  0  0
  -12.2776   -2.7629  -21.5721 H   0  0  0  0  0  0  0  0  0  0  0  0
  -10.2830   -3.8146  -22.2471 H   0  0  0  0  0  0  0  0  0  0  0  0
   -9.6845   -2.1696  -24.4535 H   0  0  0  0  0  0  0  0  0  0  0  0
   -8.4509   -2.7529  -23.3595 H   0  0  0  0  0  0  0  0  0  0  0  0
  1  2  2  0
  2  3  1  0
  3  4  1  0
  4  5  2  0
  5  6  1  0
  6  7  2  0
  7  8  1  0
  8  9  2  0
  9 10  1  0
 10 11  2  0
 11 12  1  0
 12 13  2  0
 12 14  1  0
 11 15  1  0
 10 16  1  0
  9 17  1  0
  7 18  1  0
  5 19  1  0
  3 20  1  0
  3 21  1  0
  2 22  1  0
 22 23  1  0
 23 24  1  0
 24 25  2  0
 25 26  1  0
 26 27  2  0
 27 28  1  0
 28 29  1  0
 28 30  1  0
 27 31  1  0
 26 32  1  0
 25 33  1  0
 24 34  1  0
 23 35  1  0
 23 36  1  0
 13  4  1  0
 28 22  1  0
 13  8  1  0
M  END
>  <cnnaffinities>  (79) 
[4.72277, 4.72281, 5.03262, 5.0547]

>  <score>  (79) 
4.72277

>  <index>  (79) 
81

>  <Smiles>  (79) 
O=C(C(c1c(nc(c2c(c(c(c(c12)[H])[H])[H])[H])[H])[H])([H])[H])N1C(C(=C(C(=C(C1([H])[H])[H])[H])[H])[H])([H])[H]

>  <h>  (79) 
<NA>

>  <Training>  (79) 
True

>  <Success>  (79) 
True

>  <enamine_searched>  (79) 
False

>  <enamine_id>  (79) 
nan

$$$$

     RDKit          3D

 54 57  0  0  0  0  0  0  0  0999 V2000
   -9.4766    1.4584  -24.5856 C   0  0  0  0  0  0  0  0  0  0  0  0
   -8.9104    0.1708  -24.4551 O   0  0  0  0  0  0  0  0  0  0  0  0
   -7.6210   -0.0590  -24.8487 C   0  0  0  0  0  0  0  0  0  0  0  0
   -6.7878    0.9275  -25.3875 C   0  0  0  0  0  0  0  0  0  0  0  0
   -5.4807    0.6107  -25.7596 C   0  0  0  0  0  0  0  0  0  0  0  0
   -4.9912   -0.6803  -25.6080 C   0  0  0  0  0  0  0  0  0  0  0  0
   -5.8258   -1.6454  -25.0587 C   0  0  0  0  0  0  0  0  0  0  0  0
   -7.1230   -1.3630  -24.6499 C   0  0  0  0  0  0  0  0  0  0  0  0
   -7.9878   -2.4721  -24.0492 C   0  0  1  0  0  0  0  0  0  0  0  0
   -8.5375   -3.3730  -25.1587 C   0  0  0  0  0  0  0  0  0  0  0  0
   -9.2359   -4.6034  -24.5946 C   0  0  1  0  0  0  0  0  0  0  0  0
   -9.8744   -5.4482  -25.6971 C   0  0  0  0  0  0  0  0  0  0  0  0
  -10.5895   -4.8649  -26.2871 H   0  0  0  0  0  0  0  0  0  0  0  0
   -9.1238   -5.8150  -26.4055 H   0  0  0  0  0  0  0  0  0  0  0  0
  -10.3942   -6.3217  -25.2833 H   0  0  0  0  0  0  0  0  0  0  0  0
   -8.2681   -5.4305  -23.7340 C   0  0  0  0  0  0  0  0  0  0  0  0
   -6.9947   -4.6708  -23.3575 C   0  0  0  0  0  0  0  0  0  0  0  0
   -7.2855   -3.2708  -23.0390 N   0  0  0  0  0  0  0  0  0  0  0  0
   -6.7358   -2.7283  -21.8870 C   0  0  0  0  0  0  0  0  0  0  0  0
   -5.7990   -3.2578  -21.3155 O   0  0  0  0  0  0  0  0  0  0  0  0
   -7.3990   -1.4623  -21.2848 C   0  0  0  0  0  0  0  0  0  0  0  0
   -6.5762   -0.8303  -20.1851 C   0  0  0  0  0  0  0  0  0  0  0  0
   -6.8702   -1.0473  -18.8638 C   0  0  0  0  0  0  0  0  0  0  0  0
   -6.1825   -0.5413  -17.8041 N   0  0  0  0  0  0  0  0  0  0  0  0
   -5.1547    0.2235  -18.0698 C   0  0  0  0  0  0  0  0  0  0  0  0
   -4.7167    0.5310  -19.3852 C   0  0  0  0  0  0  0  0  0  0  0  0
   -3.5894    1.3543  -19.6256 C   0  0  0  0  0  0  0  0  0  0  0  0
   -3.1933    1.6362  -20.9020 C   0  0  0  0  0  0  0  0  0  0  0  0
   -3.9145    1.0965  -21.9928 C   0  0  0  0  0  0  0  0  0  0  0  0
   -5.0061    0.2888  -21.7970 C   0  0  0  0  0  0  0  0  0  0  0  0
   -5.4435   -0.0121  -20.4804 C   0  0  0  0  0  0  0  0  0  0  0  0
   -5.5332   -0.1199  -22.6612 H   0  0  0  0  0  0  0  0  0  0  0  0
   -3.5947    1.3274  -23.0039 H   0  0  0  0  0  0  0  0  0  0  0  0
   -2.3352    2.2796  -21.0881 H   0  0  0  0  0  0  0  0  0  0  0  0
   -3.0576    1.7751  -18.7732 H   0  0  0  0  0  0  0  0  0  0  0  0
   -4.6023    0.6288  -17.2167 H   0  0  0  0  0  0  0  0  0  0  0  0
   -7.7198   -1.6706  -18.5849 H   0  0  0  0  0  0  0  0  0  0  0  0
   -7.6496   -0.7190  -22.0524 H   0  0  0  0  0  0  0  0  0  0  0  0
   -8.3623   -1.7788  -20.8570 H   0  0  0  0  0  0  0  0  0  0  0  0
   -6.2579   -4.7536  -24.1700 H   0  0  0  0  0  0  0  0  0  0  0  0
   -6.5257   -5.1216  -22.4841 H   0  0  0  0  0  0  0  0  0  0  0  0
   -7.9804   -6.3452  -24.2625 H   0  0  0  0  0  0  0  0  0  0  0  0
   -8.7845   -5.7584  -22.8282 H   0  0  0  0  0  0  0  0  0  0  0  0
  -10.0442   -4.2468  -23.9445 H   0  0  0  0  0  0  0  0  0  0  0  0
   -9.2433   -2.7845  -25.7510 H   0  0  0  0  0  0  0  0  0  0  0  0
   -7.7480   -3.6685  -25.8612 H   0  0  0  0  0  0  0  0  0  0  0  0
   -8.8458   -2.0012  -23.5637 H   0  0  0  0  0  0  0  0  0  0  0  0
   -5.4390   -2.6539  -24.9546 H   0  0  0  0  0  0  0  0  0  0  0  0
   -3.9787   -0.9407  -25.9113 H   0  0  0  0  0  0  0  0  0  0  0  0
   -4.8369    1.3782  -26.1768 H   0  0  0  0  0  0  0  0  0  0  0  0
   -7.1415    1.9466  -25.5203 H   0  0  0  0  0  0  0  0  0  0  0  0
   -9.5306    1.8132  -25.6224 H   0  0  0  0  0  0  0  0  0  0  0  0
   -8.9643    2.2159  -23.9811 H   0  0  0  0  0  0  0  0  0  0  0  0
  -10.4925    1.3656  -24.2097 H   0  0  0  0  0  0  0  0  0  0  0  0
  1  2  1  0
  2  3  1  0
  3  4  2  0
  4  5  1  0
  5  6  2  0
  6  7  1  0
  7  8  2  0
  8  9  1  0
  9 10  1  0
 10 11  1  0
 11 12  1  0
 12 13  1  0
 12 14  1  0
 12 15  1  0
 11 16  1  0
 16 17  1  0
 17 18  1  0
 18 19  1  0
 19 20  2  0
 19 21  1  0
 21 22  1  0
 22 23  2  0
 23 24  1  0
 24 25  2  0
 25 26  1  0
 26 27  2  0
 27 28  1  0
 28 29  2  0
 29 30  1  0
 30 31  2  0
 30 32  1  0
 29 33  1  0
 28 34  1  0
 27 35  1  0
 25 36  1  0
 23 37  1  0
 21 38  1  0
 21 39  1  0
 17 40  1  0
 17 41  1  0
 16 42  1  0
 16 43  1  0
 11 44  1  1
 10 45  1  0
 10 46  1  0
  9 47  1  1
  7 48  1  0
  6 49  1  0
  5 50  1  0
  4 51  1  0
  1 52  1  0
  1 53  1  0
  1 54  1  0
  8  3  1  0
 18  9  1  0
 31 22  1  0
 31 26  1  0
M  END
>  <cnnaffinities>  (80) 
[5.91623]

>  <score>  (80) 
5.91623

>  <index>  (80) 
82

>  <Smiles>  (80) 
C(Oc1c(c(c(c(c1[C@]1(C([C@@](C([H])([H])[H])(C(C(N1C(=O)C(c1c(nc(c2c(c(c(c(c12)[H])[H])[H])[H])[H])[H])([H])[H])([H])[H])([H])[H])[H])([H])[H])[H])[H])[H])[H])[H])([H])([H])[H]

>  <h>  (80) 
<NA>

>  <Training>  (80) 
True

>  <Success>  (80) 
True

>  <enamine_searched>  (80) 
False

>  <enamine_id>  (80) 
nan

$$$$

     RDKit          3D

 46 50  0  0  0  0  0  0  0  0999 V2000
   -5.4477   -3.3178  -26.9519 N   0  0  0  0  0  0  0  0  0  0  0  0
   -5.8131   -1.6833  -26.9018 S   0  0  0  0  0  0  0  0  0  0  0  0
   -5.9938   -1.1756  -28.2551 O   0  0  0  0  0  0  0  0  0  0  0  0
   -4.8286   -1.0881  -26.0164 O   0  0  0  0  0  0  0  0  0  0  0  0
   -7.3956   -1.7190  -26.1066 C   0  0  0  0  0  0  0  0  0  0  0  0
   -8.5446   -1.8791  -26.8793 C   0  0  0  0  0  0  0  0  0  0  0  0
   -9.7833   -2.0544  -26.2630 C   0  0  0  0  0  0  0  0  0  0  0  0
   -9.8545   -2.0419  -24.8703 C   0  0  0  0  0  0  0  0  0  0  0  0
   -8.6963   -1.7789  -24.1275 C   0  0  0  0  0  0  0  0  0  0  0  0
   -7.4454   -1.6540  -24.7220 C   0  0  0  0  0  0  0  0  0  0  0  0
   -6.5253   -1.5059  -24.1616 H   0  0  0  0  0  0  0  0  0  0  0  0
   -9.0429   -1.6617  -22.6430 C   0  0  1  0  0  0  0  0  0  0  0  0
  -10.5524   -1.3302  -22.7075 C   0  0  0  0  0  0  0  0  0  0  0  0
  -11.0416   -2.1496  -23.9119 C   0  0  0  0  0  0  0  0  0  0  0  0
  -11.1810   -3.5128  -23.5152 O   0  0  0  0  0  0  0  0  0  0  0  0
  -12.0036   -1.8055  -24.3049 H   0  0  0  0  0  0  0  0  0  0  0  0
  -11.9355   -3.5605  -22.9127 H   0  0  0  0  0  0  0  0  0  0  0  0
  -10.6512   -0.2619  -22.9218 H   0  0  0  0  0  0  0  0  0  0  0  0
  -11.0810   -1.5726  -21.7806 H   0  0  0  0  0  0  0  0  0  0  0  0
   -8.7253   -2.8887  -21.8915 N   0  0  0  0  0  0  0  0  0  0  0  0
   -7.5376   -2.7596  -21.2032 C   0  0  0  0  0  0  0  0  0  0  0  0
   -6.8210   -3.6352  -20.7811 O   0  0  0  0  0  0  0  0  0  0  0  0
   -7.2908   -1.3743  -21.0992 N   0  0  0  0  0  0  0  0  0  0  0  0
   -6.4653   -0.8050  -20.0859 C   0  0  0  0  0  0  0  0  0  0  0  0
   -6.7658   -1.0169  -18.7626 C   0  0  0  0  0  0  0  0  0  0  0  0
   -6.0782   -0.4791  -17.7269 N   0  0  0  0  0  0  0  0  0  0  0  0
   -5.0535    0.2838  -18.0133 C   0  0  0  0  0  0  0  0  0  0  0  0
   -4.6158    0.5707  -19.3363 C   0  0  0  0  0  0  0  0  0  0  0  0
   -3.4941    1.4070  -19.5916 C   0  0  0  0  0  0  0  0  0  0  0  0
   -3.1155    1.6801  -20.8772 C   0  0  0  0  0  0  0  0  0  0  0  0
   -3.8376    1.1341  -21.9631 C   0  0  0  0  0  0  0  0  0  0  0  0
   -4.9198    0.3188  -21.7402 C   0  0  0  0  0  0  0  0  0  0  0  0
   -5.3418    0.0193  -20.4150 C   0  0  0  0  0  0  0  0  0  0  0  0
   -5.4788   -0.0937  -22.5783 H   0  0  0  0  0  0  0  0  0  0  0  0
   -3.5418    1.3721  -22.9808 H   0  0  0  0  0  0  0  0  0  0  0  0
   -2.2678    2.3330  -21.0716 H   0  0  0  0  0  0  0  0  0  0  0  0
   -2.9640    1.8401  -18.7466 H   0  0  0  0  0  0  0  0  0  0  0  0
   -4.5174    0.7166  -17.1700 H   0  0  0  0  0  0  0  0  0  0  0  0
   -7.6186   -1.6372  -18.4963 H   0  0  0  0  0  0  0  0  0  0  0  0
   -8.1984   -0.6415  -21.8834 C   0  0  0  0  0  0  0  0  0  0  0  0
   -8.2770    0.5591  -21.9233 O   0  0  0  0  0  0  0  0  0  0  0  0
   -8.8954   -3.7788  -22.3404 H   0  0  0  0  0  0  0  0  0  0  0  0
  -10.6754   -2.1701  -26.8747 H   0  0  0  0  0  0  0  0  0  0  0  0
   -8.4405   -1.8665  -27.9598 H   0  0  0  0  0  0  0  0  0  0  0  0
   -5.8486   -3.7559  -27.7763 H   0  0  0  0  0  0  0  0  0  0  0  0
   -4.4385   -3.4328  -26.8949 H   0  0  0  0  0  0  0  0  0  0  0  0
  1  2  1  0
  2  3  2  0
  2  4  2  0
  2  5  1  0
  5  6  2  0
  6  7  1  0
  7  8  2  0
  8  9  1  0
  9 10  2  0
 10 11  1  0
  9 12  1  0
 12 13  1  0
 13 14  1  0
 14 15  1  0
 14 16  1  0
 14 17  1  0
 13 18  1  0
 13 19  1  0
 12 20  1  1
 20 21  1  0
 21 22  2  0
 21 23  1  0
 23 24  1  0
 24 25  2  0
 25 26  1  0
 26 27  2  0
 27 28  1  0
 28 29  2  0
 29 30  1  0
 30 31  2  0
 31 32  1  0
 32 33  2  0
 32 34  1  0
 31 35  1  0
 30 36  1  0
 29 37  1  0
 27 38  1  0
 25 39  1  0
 23 40  1  0
 40 41  2  0
 20 42  1  0
  7 43  1  0
  6 44  1  0
  1 45  1  0
  1 46  1  0
 10  5  1  0
 40 12  1  0
 15  8  1  0
 33 24  1  0
 33 28  1  0
M  END
>  <cnnaffinities>  (81) 
[5.36157, 5.40859]

>  <score>  (81) 
5.36157

>  <index>  (81) 
83

>  <Smiles>  (81) 
N(S(=O)(=O)c1c(c(c2c(c1[H])[C@@]1(C(C(O2)([H])[H])([H])[H])N(C(=O)N(c2c(nc(c3c(c(c(c(c23)[H])[H])[H])[H])[H])[H])C1=O)[H])[H])[H])([H])[H]

>  <h>  (81) 
<NA>

>  <Training>  (81) 
True

>  <Success>  (81) 
True

>  <enamine_searched>  (81) 
False

>  <enamine_id>  (81) 
nan

$$$$

     RDKit          3D

 63 68  0  0  0  0  0  0  0  0999 V2000
   -7.4469   -2.4634  -24.3723 C   0  0  0  0  0  0  0  0  0  0  0  0
   -8.2499   -2.4793  -23.0627 C   0  0  1  0  0  0  0  0  0  0  0  0
   -7.3081   -2.5530  -21.8366 C   0  0  0  0  0  0  0  0  0  0  0  0
   -7.4521   -1.2663  -21.2008 N   0  0  0  0  0  0  0  0  0  0  0  0
   -6.6078   -0.7667  -20.1793 C   0  0  0  0  0  0  0  0  0  0  0  0
   -6.9041   -1.0257  -18.8680 C   0  0  0  0  0  0  0  0  0  0  0  0
   -6.1846   -0.5625  -17.8202 N   0  0  0  0  0  0  0  0  0  0  0  0
   -5.1548    0.2005  -18.0908 C   0  0  0  0  0  0  0  0  0  0  0  0
   -4.7408    0.5532  -19.4055 C   0  0  0  0  0  0  0  0  0  0  0  0
   -3.6266    1.3982  -19.6457 C   0  0  0  0  0  0  0  0  0  0  0  0
   -3.2578    1.7162  -20.9238 C   0  0  0  0  0  0  0  0  0  0  0  0
   -3.9824    1.2061  -22.0241 C   0  0  0  0  0  0  0  0  0  0  0  0
   -5.0689    0.3904  -21.8204 C   0  0  0  0  0  0  0  0  0  0  0  0
   -5.4839    0.0501  -20.5006 C   0  0  0  0  0  0  0  0  0  0  0  0
   -5.6234    0.0021  -22.6702 H   0  0  0  0  0  0  0  0  0  0  0  0
   -3.6833    1.4769  -23.0338 H   0  0  0  0  0  0  0  0  0  0  0  0
   -2.4046    2.3642  -21.0981 H   0  0  0  0  0  0  0  0  0  0  0  0
   -3.0858    1.7901  -18.7895 H   0  0  0  0  0  0  0  0  0  0  0  0
   -4.5863    0.5855  -17.2439 H   0  0  0  0  0  0  0  0  0  0  0  0
   -7.7712   -1.6367  -18.6240 H   0  0  0  0  0  0  0  0  0  0  0  0
   -8.5040   -0.5086  -21.6429 C   0  0  0  0  0  0  0  0  0  0  0  0
   -8.8109    0.5683  -21.1656 O   0  0  0  0  0  0  0  0  0  0  0  0
   -9.1761   -1.2366  -22.8227 C   0  0  1  0  0  0  0  0  0  0  0  0
   -9.2367   -0.2927  -24.0504 C   0  0  0  0  0  0  0  0  0  0  0  0
  -10.1088    0.8482  -23.8354 N   0  0  0  0  0  0  0  0  0  0  0  0
   -9.7827    2.1372  -24.4218 C   0  0  0  0  0  0  0  0  0  0  0  0
   -9.1563    3.1078  -23.4173 C   0  0  0  0  0  0  0  0  0  0  0  0
   -9.7674    4.0810  -23.0184 O   0  0  0  0  0  0  0  0  0  0  0  0
   -7.8834    2.7981  -23.0286 N   0  0  0  0  0  0  0  0  0  0  0  0
   -7.2423    3.4772  -21.9254 C   0  0  0  0  0  0  0  0  0  0  0  0
   -6.6148    4.7899  -22.2945 C   0  0  0  0  0  0  0  0  0  0  0  0
   -7.5623    5.7484  -22.5521 F   0  0  0  0  0  0  0  0  0  0  0  0
   -5.3862    5.2910  -21.6278 C   0  0  0  0  0  0  0  0  0  0  0  0
   -5.3771    4.9401  -23.0959 C   0  0  0  0  0  0  0  0  0  0  0  0
   -4.8497    4.0490  -23.4100 H   0  0  0  0  0  0  0  0  0  0  0  0
   -5.4127    5.7685  -23.7915 H   0  0  0  0  0  0  0  0  0  0  0  0
   -4.8621    4.6382  -20.9354 H   0  0  0  0  0  0  0  0  0  0  0  0
   -5.3929    6.3413  -21.3708 H   0  0  0  0  0  0  0  0  0  0  0  0
   -6.4864    2.8080  -21.4996 H   0  0  0  0  0  0  0  0  0  0  0  0
   -8.0031    3.6718  -21.1705 H   0  0  0  0  0  0  0  0  0  0  0  0
   -7.4934    1.9054  -23.2898 H   0  0  0  0  0  0  0  0  0  0  0  0
   -9.1216    1.9879  -25.2821 H   0  0  0  0  0  0  0  0  0  0  0  0
  -10.7021    2.5947  -24.7864 H   0  0  0  0  0  0  0  0  0  0  0  0
  -11.3512    0.6870  -23.2827 C   0  0  0  0  0  0  0  0  0  0  0  0
  -12.1873    1.5818  -23.2848 O   0  0  0  0  0  0  0  0  0  0  0  0
  -11.6394   -0.6529  -22.6810 C   0  0  0  0  0  0  0  0  0  0  0  0
  -12.9587   -0.9194  -22.3113 C   0  0  0  0  0  0  0  0  0  0  0  0
  -13.2970   -2.1177  -21.7176 C   0  0  0  0  0  0  0  0  0  0  0  0
  -12.2739   -3.0239  -21.4752 C   0  0  0  0  0  0  0  0  0  0  0  0
  -12.5863   -4.1769  -20.8657 F   0  0  0  0  0  0  0  0  0  0  0  0
  -10.9566   -2.7813  -21.8153 C   0  0  0  0  0  0  0  0  0  0  0  0
  -10.6170   -1.5853  -22.4574 C   0  0  0  0  0  0  0  0  0  0  0  0
  -10.2189   -3.5265  -21.5412 H   0  0  0  0  0  0  0  0  0  0  0  0
  -14.3141   -2.3534  -21.4206 H   0  0  0  0  0  0  0  0  0  0  0  0
  -13.7059   -0.1543  -22.4884 H   0  0  0  0  0  0  0  0  0  0  0  0
   -9.5970   -0.8755  -24.9087 H   0  0  0  0  0  0  0  0  0  0  0  0
   -8.2352    0.0798  -24.2742 H   0  0  0  0  0  0  0  0  0  0  0  0
   -6.2616   -2.7145  -22.1270 H   0  0  0  0  0  0  0  0  0  0  0  0
   -7.5859   -3.3668  -21.1539 H   0  0  0  0  0  0  0  0  0  0  0  0
   -8.8680   -3.3814  -23.1156 H   0  0  0  0  0  0  0  0  0  0  0  0
   -6.8383   -3.3707  -24.4523 H   0  0  0  0  0  0  0  0  0  0  0  0
   -8.1067   -2.4334  -25.2450 H   0  0  0  0  0  0  0  0  0  0  0  0
   -6.7675   -1.6033  -24.4227 H   0  0  0  0  0  0  0  0  0  0  0  0
  1  2  1  0
  2  3  1  0
  3  4  1  0
  4  5  1  0
  5  6  2  0
  6  7  1  0
  7  8  2  0
  8  9  1  0
  9 10  2  0
 10 11  1  0
 11 12  2  0
 12 13  1  0
 13 14  2  0
 13 15  1  0
 12 16  1  0
 11 17  1  0
 10 18  1  0
  8 19  1  0
  6 20  1  0
  4 21  1  0
 21 22  2  0
 21 23  1  0
 23 24  1  6
 24 25  1  0
 25 26  1  0
 26 27  1  0
 27 28  2  0
 27 29  1  0
 29 30  1  0
 30 31  1  0
 31 32  1  0
 31 33  1  0
 33 34  1  0
 34 35  1  0
 34 36  1  0
 33 37  1  0
 33 38  1  0
 30 39  1  0
 30 40  1  0
 29 41  1  0
 26 42  1  0
 26 43  1  0
 25 44  1  0
 44 45  2  0
 44 46  1  0
 46 47  2  0
 47 48  1  0
 48 49  2  0
 49 50  1  0
 49 51  1  0
 51 52  2  0
 51 53  1  0
 48 54  1  0
 47 55  1  0
 24 56  1  0
 24 57  1  0
  3 58  1  0
  3 59  1  0
  2 60  1  6
  1 61  1  0
  1 62  1  0
  1 63  1  0
 23  2  1  0
 34 31  1  0
 52 46  1  0
 14  5  1  0
 52 23  1  0
 14  9  1  0
M  END
>  <cnnaffinities>  (82) 
[6.71403]

>  <score>  (82) 
6.71403

>  <index>  (82) 
84

>  <Smiles>  (82) 
C([C@]1(C(N(c2c(nc(c3c(c(c(c(c23)[H])[H])[H])[H])[H])[H])C(=O)[C@]21C(N(C(C(=O)N(C(C1(F)C(C1([H])[H])([H])[H])([H])[H])[H])([H])[H])C(=O)c1c(c(c(F)c(c21)[H])[H])[H])([H])[H])([H])[H])[H])([H])([H])[H]

>  <h>  (82) 
<NA>

>  <Training>  (82) 
True

>  <Success>  (82) 
True

>  <enamine_searched>  (82) 
False

>  <enamine_id>  (82) 
nan

$$$$

     RDKit          3D

 57 62  0  0  0  0  0  0  0  0999 V2000
   -9.1390   -8.7467  -23.3502 C   0  0  0  0  0  0  0  0  0  0  0  0
   -8.3613   -7.5787  -23.0046 N   0  0  0  0  0  0  0  0  0  0  0  0
   -7.3102   -7.2076  -23.7963 C   0  0  0  0  0  0  0  0  0  0  0  0
   -7.0956   -7.6704  -24.8978 O   0  0  0  0  0  0  0  0  0  0  0  0
   -6.4263   -6.1032  -23.2210 C   0  0  0  0  0  0  0  0  0  0  0  0
   -6.8184   -4.8362  -23.7790 N   0  0  0  0  0  0  0  0  0  0  0  0
   -8.0299   -4.2162  -23.2829 C   0  0  0  0  0  0  0  0  0  0  0  0
   -7.8475   -2.6991  -23.1485 C   0  0  2  0  0  0  0  0  0  0  0  0
   -6.8326   -2.4194  -22.0221 C   0  0  0  0  0  0  0  0  0  0  0  0
   -5.7539   -2.9469  -21.8522 O   0  0  0  0  0  0  0  0  0  0  0  0
   -7.3466   -1.4355  -21.2133 N   0  0  0  0  0  0  0  0  0  0  0  0
   -6.5736   -0.8431  -20.1960 C   0  0  0  0  0  0  0  0  0  0  0  0
   -6.9088   -1.0489  -18.8826 C   0  0  0  0  0  0  0  0  0  0  0  0
   -6.2216   -0.5444  -17.8334 N   0  0  0  0  0  0  0  0  0  0  0  0
   -5.1794    0.2020  -18.1049 C   0  0  0  0  0  0  0  0  0  0  0  0
   -4.7354    0.5042  -19.4235 C   0  0  0  0  0  0  0  0  0  0  0  0
   -3.6114    1.3391  -19.6460 C   0  0  0  0  0  0  0  0  0  0  0  0
   -3.2263    1.6604  -20.9166 C   0  0  0  0  0  0  0  0  0  0  0  0
   -3.9510    1.1642  -22.0247 C   0  0  0  0  0  0  0  0  0  0  0  0
   -5.0387    0.3454  -21.8426 C   0  0  0  0  0  0  0  0  0  0  0  0
   -5.4513   -0.0177  -20.5220 C   0  0  0  0  0  0  0  0  0  0  0  0
   -5.5909   -0.0144  -22.7132 H   0  0  0  0  0  0  0  0  0  0  0  0
   -3.6455    1.4468  -23.0285 H   0  0  0  0  0  0  0  0  0  0  0  0
   -2.3744    2.3145  -21.0813 H   0  0  0  0  0  0  0  0  0  0  0  0
   -3.0908    1.7375  -18.7798 H   0  0  0  0  0  0  0  0  0  0  0  0
   -4.6291    0.6176  -17.2602 H   0  0  0  0  0  0  0  0  0  0  0  0
   -7.7637   -1.6809  -18.6416 H   0  0  0  0  0  0  0  0  0  0  0  0
   -8.7199   -1.0944  -21.4841 C   0  0  0  0  0  0  0  0  0  0  0  0
   -9.1049   -1.9760  -22.6570 C   0  0  0  0  0  0  0  0  0  0  0  0
  -10.4527   -2.6418  -22.5906 C   0  0  0  0  0  0  0  0  0  0  0  0
  -10.1954   -1.5543  -23.5960 C   0  0  0  0  0  0  0  0  0  0  0  0
  -10.0917   -1.8572  -24.6339 H   0  0  0  0  0  0  0  0  0  0  0  0
  -10.6520   -0.5754  -23.4556 H   0  0  0  0  0  0  0  0  0  0  0  0
  -10.5338   -3.6658  -22.9403 H   0  0  0  0  0  0  0  0  0  0  0  0
  -11.0771   -2.4191  -21.7284 H   0  0  0  0  0  0  0  0  0  0  0  0
   -9.3476   -1.3328  -20.6319 H   0  0  0  0  0  0  0  0  0  0  0  0
   -8.8222   -0.0285  -21.7090 H   0  0  0  0  0  0  0  0  0  0  0  0
   -7.2952   -2.1894  -24.4713 C   0  0  0  0  0  0  0  0  0  0  0  0
   -7.4363   -0.8463  -24.8234 C   0  0  0  0  0  0  0  0  0  0  0  0
   -6.9062   -0.3922  -26.0175 C   0  0  0  0  0  0  0  0  0  0  0  0
   -7.0862    1.2880  -26.4306 Cl  0  0  0  0  0  0  0  0  0  0  0  0
   -6.2250   -1.2399  -26.8928 C   0  0  0  0  0  0  0  0  0  0  0  0
   -6.0500   -2.5589  -26.5304 C   0  0  0  0  0  0  0  0  0  0  0  0
   -6.5550   -3.0174  -25.3201 C   0  0  0  0  0  0  0  0  0  0  0  0
   -6.2085   -4.4101  -24.9205 C   0  0  0  0  0  0  0  0  0  0  0  0
   -5.4065   -5.0935  -25.5424 O   0  0  0  0  0  0  0  0  0  0  0  0
   -5.5103   -3.2756  -27.1425 H   0  0  0  0  0  0  0  0  0  0  0  0
   -5.8203   -0.8549  -27.8209 H   0  0  0  0  0  0  0  0  0  0  0  0
   -7.9828   -0.1692  -24.1735 H   0  0  0  0  0  0  0  0  0  0  0  0
   -8.2676   -4.6132  -22.2945 H   0  0  0  0  0  0  0  0  0  0  0  0
   -8.8703   -4.4242  -23.9593 H   0  0  0  0  0  0  0  0  0  0  0  0
   -5.3724   -6.2545  -23.4800 H   0  0  0  0  0  0  0  0  0  0  0  0
   -6.5249   -6.0110  -22.1371 H   0  0  0  0  0  0  0  0  0  0  0  0
   -8.5506   -7.0745  -22.1531 H   0  0  0  0  0  0  0  0  0  0  0  0
  -10.0686   -8.7794  -22.7829 H   0  0  0  0  0  0  0  0  0  0  0  0
   -9.3544   -8.6939  -24.4259 H   0  0  0  0  0  0  0  0  0  0  0  0
   -8.5730   -9.6498  -23.0883 H   0  0  0  0  0  0  0  0  0  0  0  0
  1  2  1  0
  2  3  1  0
  3  4  2  0
  3  5  1  0
  5  6  1  0
  6  7  1  0
  8  7  1  6
  8  9  1  0
  9 10  2  0
  9 11  1  0
 11 12  1  0
 12 13  2  0
 13 14  1  0
 14 15  2  0
 15 16  1  0
 16 17  2  0
 17 18  1  0
 18 19  2  0
 19 20  1  0
 20 21  2  0
 20 22  1  0
 19 23  1  0
 18 24  1  0
 17 25  1  0
 15 26  1  0
 13 27  1  0
 11 28  1  0
 28 29  1  0
 29 30  1  0
 30 31  1  0
 31 32  1  0
 31 33  1  0
 30 34  1  0
 30 35  1  0
 28 36  1  0
 28 37  1  0
  8 38  1  0
 38 39  2  0
 39 40  1  0
 40 41  1  0
 40 42  2  0
 42 43  1  0
 43 44  2  0
 44 45  1  0
 45 46  2  0
 43 47  1  0
 42 48  1  0
 39 49  1  0
  7 50  1  0
  7 51  1  0
  5 52  1  0
  5 53  1  0
  2 54  1  0
  1 55  1  0
  1 56  1  0
  1 57  1  0
 45  6  1  0
 29  8  1  0
 44 38  1  0
 21 12  1  0
 31 29  1  0
 21 16  1  0
M  END
>  <cnnaffinities>  (83) 
[5.68137]

>  <score>  (83) 
5.68137

>  <index>  (83) 
85

>  <Smiles>  (83) 
C(N(C(=O)C(N1C([C@@]2(C(=O)N(c3c(nc(c4c(c(c(c(c34)[H])[H])[H])[H])[H])[H])C(C32C(C3([H])[H])([H])[H])([H])[H])c2c(c(Cl)c(c(c2C1=O)[H])[H])[H])([H])[H])([H])[H])[H])([H])([H])[H]

>  <h>  (83) 
<NA>

>  <Training>  (83) 
True

>  <Success>  (83) 
True

>  <enamine_searched>  (83) 
False

>  <enamine_id>  (83) 
nan

$$$$

     RDKit          3D

 43 45  0  0  0  0  0  0  0  0999 V2000
   -8.5467   -5.5631  -25.7827 C   0  0  0  0  0  0  0  0  0  0  0  0
   -9.0627   -5.4484  -24.3461 C   0  0  1  0  0  0  0  0  0  0  0  0
   -8.0269   -5.8768  -23.3095 C   0  0  0  0  0  0  0  0  0  0  0  0
   -6.9372   -4.8320  -23.0944 C   0  0  0  0  0  0  0  0  0  0  0  0
   -7.5147   -3.5417  -22.7117 N   0  0  0  0  0  0  0  0  0  0  0  0
   -6.7560   -2.7460  -21.8640 C   0  0  0  0  0  0  0  0  0  0  0  0
   -5.6213   -3.0573  -21.5488 O   0  0  0  0  0  0  0  0  0  0  0  0
   -7.4130   -1.4744  -21.2704 C   0  0  0  0  0  0  0  0  0  0  0  0
   -6.5795   -0.8305  -20.1855 C   0  0  0  0  0  0  0  0  0  0  0  0
   -6.8727   -1.0459  -18.8648 C   0  0  0  0  0  0  0  0  0  0  0  0
   -6.1840   -0.5428  -17.8064 N   0  0  0  0  0  0  0  0  0  0  0  0
   -5.1552    0.2225  -18.0698 C   0  0  0  0  0  0  0  0  0  0  0  0
   -4.7184    0.5286  -19.3843 C   0  0  0  0  0  0  0  0  0  0  0  0
   -3.5889    1.3521  -19.6238 C   0  0  0  0  0  0  0  0  0  0  0  0
   -3.1884    1.6320  -20.9019 C   0  0  0  0  0  0  0  0  0  0  0  0
   -3.9042    1.0938  -21.9932 C   0  0  0  0  0  0  0  0  0  0  0  0
   -4.9982    0.2889  -21.7866 C   0  0  0  0  0  0  0  0  0  0  0  0
   -5.4438   -0.0140  -20.4752 C   0  0  0  0  0  0  0  0  0  0  0  0
   -5.5278   -0.1302  -22.6350 H   0  0  0  0  0  0  0  0  0  0  0  0
   -3.5823    1.3202  -23.0046 H   0  0  0  0  0  0  0  0  0  0  0  0
   -2.3303    2.2741  -21.0844 H   0  0  0  0  0  0  0  0  0  0  0  0
   -3.0597    1.7731  -18.7721 H   0  0  0  0  0  0  0  0  0  0  0  0
   -4.6043    0.6274  -17.2176 H   0  0  0  0  0  0  0  0  0  0  0  0
   -7.7196   -1.6691  -18.5841 H   0  0  0  0  0  0  0  0  0  0  0  0
   -7.6218   -0.7474  -22.0678 H   0  0  0  0  0  0  0  0  0  0  0  0
   -8.3923   -1.7508  -20.8539 H   0  0  0  0  0  0  0  0  0  0  0  0
   -8.5397   -2.9962  -23.6131 C   0  0  1  0  0  0  0  0  0  0  0  0
   -7.9411   -2.2906  -24.8404 C   0  0  0  0  0  0  0  0  0  0  0  0
   -8.7286   -1.9760  -25.5347 H   0  0  0  0  0  0  0  0  0  0  0  0
   -7.2484   -2.9312  -25.3934 H   0  0  0  0  0  0  0  0  0  0  0  0
   -7.3906   -1.3890  -24.5495 H   0  0  0  0  0  0  0  0  0  0  0  0
   -9.5906   -4.0638  -23.9667 C   0  0  0  0  0  0  0  0  0  0  0  0
  -10.2107   -3.6807  -24.7839 H   0  0  0  0  0  0  0  0  0  0  0  0
  -10.2626   -4.1716  -23.1086 H   0  0  0  0  0  0  0  0  0  0  0  0
   -9.0800   -2.2361  -23.0440 H   0  0  0  0  0  0  0  0  0  0  0  0
   -6.2994   -4.7541  -23.9885 H   0  0  0  0  0  0  0  0  0  0  0  0
   -6.2731   -5.1444  -22.2911 H   0  0  0  0  0  0  0  0  0  0  0  0
   -7.5747   -6.8272  -23.6122 H   0  0  0  0  0  0  0  0  0  0  0  0
   -8.5208   -6.0606  -22.3511 H   0  0  0  0  0  0  0  0  0  0  0  0
   -9.9147   -6.1378  -24.2796 H   0  0  0  0  0  0  0  0  0  0  0  0
   -7.6000   -5.0392  -25.9395 H   0  0  0  0  0  0  0  0  0  0  0  0
   -8.3803   -6.6138  -26.0496 H   0  0  0  0  0  0  0  0  0  0  0  0
   -9.2681   -5.1520  -26.4966 H   0  0  0  0  0  0  0  0  0  0  0  0
  1  2  1  0
  2  3  1  0
  3  4  1  0
  4  5  1  0
  5  6  1  0
  6  7  2  0
  6  8  1  0
  8  9  1  0
  9 10  2  0
 10 11  1  0
 11 12  2  0
 12 13  1  0
 13 14  2  0
 14 15  1  0
 15 16  2  0
 16 17  1  0
 17 18  2  0
 17 19  1  0
 16 20  1  0
 15 21  1  0
 14 22  1  0
 12 23  1  0
 10 24  1  0
  8 25  1  0
  8 26  1  0
  5 27  1  0
 27 28  1  0
 28 29  1  0
 28 30  1  0
 28 31  1  0
 27 32  1  0
 32 33  1  0
 32 34  1  0
 27 35  1  1
  4 36  1  0
  4 37  1  0
  3 38  1  0
  3 39  1  0
  2 40  1  6
  1 41  1  0
  1 42  1  0
  1 43  1  0
 32  2  1  0
 18  9  1  0
 18 13  1  0
M  END
>  <cnnaffinities>  (84) 
[5.20274, 5.17002]

>  <score>  (84) 
5.20274

>  <index>  (84) 
86

>  <Smiles>  (84) 
C([C@]1(C(C(N(C(=O)C(c2c(nc(c3c(c(c(c(c23)[H])[H])[H])[H])[H])[H])([H])[H])[C@@](C([H])([H])[H])(C1([H])[H])[H])([H])[H])([H])[H])[H])([H])([H])[H]

>  <h>  (84) 
<NA>

>  <Training>  (84) 
True

>  <Success>  (84) 
True

>  <enamine_searched>  (84) 
False

>  <enamine_id>  (84) 
nan

$$$$

     RDKit          3D

 59 64  0  0  0  0  0  0  0  0999 V2000
   -8.1671   -4.0212  -23.7383 C   0  0  0  0  0  0  0  0  0  0  0  0
   -8.3143   -3.2209  -22.4493 C   0  0  1  0  0  0  0  0  0  0  0  0
   -6.9902   -2.5617  -22.0072 C   0  0  0  0  0  0  0  0  0  0  0  0
   -7.4304   -1.4261  -21.2182 N   0  0  0  0  0  0  0  0  0  0  0  0
   -6.6542   -0.8171  -20.2015 C   0  0  0  0  0  0  0  0  0  0  0  0
   -6.9619   -1.0411  -18.8801 C   0  0  0  0  0  0  0  0  0  0  0  0
   -6.2350   -0.5726  -17.8374 N   0  0  0  0  0  0  0  0  0  0  0  0
   -5.1858    0.1653  -18.1010 C   0  0  0  0  0  0  0  0  0  0  0  0
   -4.7540    0.4813  -19.4177 C   0  0  0  0  0  0  0  0  0  0  0  0
   -3.6248    1.3102  -19.6483 C   0  0  0  0  0  0  0  0  0  0  0  0
   -3.2404    1.6198  -20.9237 C   0  0  0  0  0  0  0  0  0  0  0  0
   -3.9572    1.0927  -22.0209 C   0  0  0  0  0  0  0  0  0  0  0  0
   -5.0443    0.2729  -21.8242 C   0  0  0  0  0  0  0  0  0  0  0  0
   -5.4908   -0.0348  -20.5099 C   0  0  0  0  0  0  0  0  0  0  0  0
   -5.5816   -0.1434  -22.6734 H   0  0  0  0  0  0  0  0  0  0  0  0
   -3.6530    1.3583  -23.0309 H   0  0  0  0  0  0  0  0  0  0  0  0
   -2.3973    2.2841  -21.0962 H   0  0  0  0  0  0  0  0  0  0  0  0
   -3.1013    1.7136  -18.7864 H   0  0  0  0  0  0  0  0  0  0  0  0
   -4.6185    0.5533  -17.2526 H   0  0  0  0  0  0  0  0  0  0  0  0
   -7.8256   -1.6449  -18.6084 H   0  0  0  0  0  0  0  0  0  0  0  0
   -8.7558   -1.1017  -21.4295 C   0  0  0  0  0  0  0  0  0  0  0  0
   -9.3256   -0.1833  -20.8844 O   0  0  0  0  0  0  0  0  0  0  0  0
   -9.3393   -2.0561  -22.5081 C   0  0  1  0  0  0  0  0  0  0  0  0
   -9.2600   -1.3105  -23.8677 C   0  0  0  0  0  0  0  0  0  0  0  0
  -10.0905   -0.1284  -23.8628 N   0  0  0  0  0  0  0  0  0  0  0  0
   -9.6016    1.0710  -24.5071 C   0  0  0  0  0  0  0  0  0  0  0  0
   -8.6881    1.8453  -23.6189 C   0  0  0  0  0  0  0  0  0  0  0  0
   -9.0541    2.4521  -22.4493 C   0  0  0  0  0  0  0  0  0  0  0  0
   -7.9447    3.2409  -22.0948 C   0  0  0  0  0  0  0  0  0  0  0  0
   -6.9507    3.0958  -22.9629 N   0  0  0  0  0  0  0  0  0  0  0  0
   -7.4123    2.2212  -23.8747 N   0  0  0  0  0  0  0  0  0  0  0  0
   -6.5573    1.7729  -24.9493 C   0  0  0  0  0  0  0  0  0  0  0  0
   -5.5447    2.0873  -24.7033 H   0  0  0  0  0  0  0  0  0  0  0  0
   -6.5859    0.6802  -25.0180 H   0  0  0  0  0  0  0  0  0  0  0  0
   -6.8376    2.2010  -25.9192 H   0  0  0  0  0  0  0  0  0  0  0  0
   -7.8480    3.9533  -21.2894 H   0  0  0  0  0  0  0  0  0  0  0  0
   -9.9910    2.3016  -21.9363 H   0  0  0  0  0  0  0  0  0  0  0  0
  -10.4878    1.6819  -24.6613 H   0  0  0  0  0  0  0  0  0  0  0  0
   -9.1551    0.8601  -25.4884 H   0  0  0  0  0  0  0  0  0  0  0  0
  -11.3365   -0.1278  -23.2957 C   0  0  0  0  0  0  0  0  0  0  0  0
  -12.0694    0.8570  -23.3257 O   0  0  0  0  0  0  0  0  0  0  0  0
  -11.7577   -1.4029  -22.6243 C   0  0  0  0  0  0  0  0  0  0  0  0
  -13.1184   -1.5683  -22.3570 C   0  0  0  0  0  0  0  0  0  0  0  0
  -13.5469   -2.6323  -21.5908 C   0  0  0  0  0  0  0  0  0  0  0  0
  -12.5998   -3.5647  -21.1865 C   0  0  0  0  0  0  0  0  0  0  0  0
  -13.0046   -4.4459  -20.2595 F   0  0  0  0  0  0  0  0  0  0  0  0
  -11.2793   -3.5401  -21.6164 C   0  0  0  0  0  0  0  0  0  0  0  0
  -10.8120   -2.3831  -22.2681 C   0  0  0  0  0  0  0  0  0  0  0  0
  -10.6292   -4.3804  -21.3969 H   0  0  0  0  0  0  0  0  0  0  0  0
  -14.5754   -2.7589  -21.2781 H   0  0  0  0  0  0  0  0  0  0  0  0
  -13.8202   -0.8273  -22.7183 H   0  0  0  0  0  0  0  0  0  0  0  0
   -9.5788   -1.9870  -24.6730 H   0  0  0  0  0  0  0  0  0  0  0  0
   -8.2325   -0.9835  -24.0638 H   0  0  0  0  0  0  0  0  0  0  0  0
   -6.3529   -3.2260  -21.4134 H   0  0  0  0  0  0  0  0  0  0  0  0
   -6.3983   -2.2384  -22.8777 H   0  0  0  0  0  0  0  0  0  0  0  0
   -8.6127   -3.8849  -21.6307 H   0  0  0  0  0  0  0  0  0  0  0  0
   -7.7663   -3.3840  -24.5373 H   0  0  0  0  0  0  0  0  0  0  0  0
   -9.1418   -4.3942  -24.0711 H   0  0  0  0  0  0  0  0  0  0  0  0
   -7.4836   -4.8705  -23.6207 H   0  0  0  0  0  0  0  0  0  0  0  0
  1  2  1  0
  2  3  1  0
  3  4  1  0
  4  5  1  0
  5  6  2  0
  6  7  1  0
  7  8  2  0
  8  9  1  0
  9 10  2  0
 10 11  1  0
 11 12  2  0
 12 13  1  0
 13 14  2  0
 13 15  1  0
 12 16  1  0
 11 17  1  0
 10 18  1  0
  8 19  1  0
  6 20  1  0
  4 21  1  0
 21 22  2  0
 21 23  1  0
 23 24  1  6
 24 25  1  0
 25 26  1  0
 26 27  1  0
 27 28  2  0
 28 29  1  0
 29 30  2  0
 30 31  1  0
 31 32  1  0
 32 33  1  0
 32 34  1  0
 32 35  1  0
 29 36  1  0
 28 37  1  0
 26 38  1  0
 26 39  1  0
 25 40  1  0
 40 41  2  0
 40 42  1  0
 42 43  2  0
 43 44  1  0
 44 45  2  0
 45 46  1  0
 45 47  1  0
 47 48  2  0
 47 49  1  0
 44 50  1  0
 43 51  1  0
 24 52  1  0
 24 53  1  0
  3 54  1  0
  3 55  1  0
  2 56  1  1
  1 57  1  0
  1 58  1  0
  1 59  1  0
 23  2  1  0
 31 27  1  0
 48 42  1  0
 14  5  1  0
 48 23  1  0
 14  9  1  0
M  END
>  <cnnaffinities>  (85) 
[6.71513, 6.52146, 6.02552, 6.3444]

>  <score>  (85) 
6.71513

>  <index>  (85) 
87

>  <Smiles>  (85) 
C([C@]1(C(N(c2c(nc(c3c(c(c(c(c23)[H])[H])[H])[H])[H])[H])C(=O)[C@]21C(N(C(c1c(c(nn1C([H])([H])[H])[H])[H])([H])[H])C(=O)c1c(c(c(F)c(c21)[H])[H])[H])([H])[H])([H])[H])[H])([H])([H])[H]

>  <h>  (85) 
<NA>

>  <Training>  (85) 
True

>  <Success>  (85) 
True

>  <enamine_searched>  (85) 
False

>  <enamine_id>  (85) 
nan

$$$$

     RDKit          3D

 40 42  0  0  0  0  0  0  0  0999 V2000
   -5.5911   -2.9711  -21.6799 O   0  0  0  0  0  0  0  0  0  0  0  0
   -6.7933   -2.7991  -21.7760 C   0  0  0  0  0  0  0  0  0  0  0  0
   -7.4238   -1.4823  -21.2551 C   0  0  0  0  0  0  0  0  0  0  0  0
   -6.5823   -0.8245  -20.1815 C   0  0  0  0  0  0  0  0  0  0  0  0
   -6.8724   -1.0414  -18.8593 C   0  0  0  0  0  0  0  0  0  0  0  0
   -6.1825   -0.5416  -17.8026 N   0  0  0  0  0  0  0  0  0  0  0  0
   -5.1543    0.2246  -18.0666 C   0  0  0  0  0  0  0  0  0  0  0  0
   -4.7182    0.5317  -19.3834 C   0  0  0  0  0  0  0  0  0  0  0  0
   -3.5877    1.3557  -19.6210 C   0  0  0  0  0  0  0  0  0  0  0  0
   -3.1873    1.6337  -20.8997 C   0  0  0  0  0  0  0  0  0  0  0  0
   -3.9016    1.0941  -21.9911 C   0  0  0  0  0  0  0  0  0  0  0  0
   -4.9971    0.2904  -21.7859 C   0  0  0  0  0  0  0  0  0  0  0  0
   -5.4437   -0.0097  -20.4733 C   0  0  0  0  0  0  0  0  0  0  0  0
   -5.5179   -0.1376  -22.6356 H   0  0  0  0  0  0  0  0  0  0  0  0
   -3.5757    1.3166  -23.0026 H   0  0  0  0  0  0  0  0  0  0  0  0
   -2.3276    2.2736  -21.0830 H   0  0  0  0  0  0  0  0  0  0  0  0
   -3.0552    1.7758  -18.7706 H   0  0  0  0  0  0  0  0  0  0  0  0
   -4.6006    0.6285  -17.2167 H   0  0  0  0  0  0  0  0  0  0  0  0
   -7.7185   -1.6691  -18.5838 H   0  0  0  0  0  0  0  0  0  0  0  0
   -8.4255   -1.6853  -20.8465 H   0  0  0  0  0  0  0  0  0  0  0  0
   -7.5644   -0.7899  -22.0956 H   0  0  0  0  0  0  0  0  0  0  0  0
   -7.6213   -3.7653  -22.3129 N   0  0  0  0  0  0  0  0  0  0  0  0
   -7.2634   -5.1766  -22.1484 C   0  0  0  0  0  0  0  0  0  0  0  0
   -7.5491   -6.0014  -23.3958 C   0  0  0  0  0  0  0  0  0  0  0  0
   -8.9876   -5.8058  -23.8515 C   0  0  0  0  0  0  0  0  0  0  0  0
   -9.3353   -6.6222  -25.0811 C   0  0  0  0  0  0  0  0  0  0  0  0
   -8.5083   -6.2809  -26.1113 F   0  0  0  0  0  0  0  0  0  0  0  0
   -9.1515   -7.9562  -24.8519 F   0  0  0  0  0  0  0  0  0  0  0  0
  -10.3693   -6.4860  -25.4274 H   0  0  0  0  0  0  0  0  0  0  0  0
   -9.2772   -4.3283  -24.0593 C   0  0  0  0  0  0  0  0  0  0  0  0
   -8.9717   -3.5174  -22.8033 C   0  0  0  0  0  0  0  0  0  0  0  0
   -9.7207   -3.7515  -22.0322 H   0  0  0  0  0  0  0  0  0  0  0  0
   -9.0780   -2.4580  -23.0377 H   0  0  0  0  0  0  0  0  0  0  0  0
   -8.6821   -3.9625  -24.8987 H   0  0  0  0  0  0  0  0  0  0  0  0
  -10.3270   -4.1838  -24.3391 H   0  0  0  0  0  0  0  0  0  0  0  0
   -9.6360   -6.1714  -23.0616 H   0  0  0  0  0  0  0  0  0  0  0  0
   -6.8729   -5.7043  -24.1990 H   0  0  0  0  0  0  0  0  0  0  0  0
   -7.3561   -7.0618  -23.1962 H   0  0  0  0  0  0  0  0  0  0  0  0
   -6.2068   -5.2353  -21.8914 H   0  0  0  0  0  0  0  0  0  0  0  0
   -7.8178   -5.6142  -21.3056 H   0  0  0  0  0  0  0  0  0  0  0  0
  1  2  2  0
  2  3  1  0
  3  4  1  0
  4  5  2  0
  5  6  1  0
  6  7  2  0
  7  8  1  0
  8  9  2  0
  9 10  1  0
 10 11  2  0
 11 12  1  0
 12 13  2  0
 12 14  1  0
 11 15  1  0
 10 16  1  0
  9 17  1  0
  7 18  1  0
  5 19  1  0
  3 20  1  0
  3 21  1  0
  2 22  1  0
 22 23  1  0
 23 24  1  0
 24 25  1  0
 25 26  1  0
 26 27  1  0
 26 28  1  0
 26 29  1  0
 25 30  1  0
 30 31  1  0
 31 32  1  0
 31 33  1  0
 30 34  1  0
 30 35  1  0
 25 36  1  0
 24 37  1  0
 24 38  1  0
 23 39  1  0
 23 40  1  0
 13  4  1  0
 31 22  1  0
 13  8  1  0
M  END
>  <cnnaffinities>  (86) 
[5.21612, 5.22098, 5.22095, 5.21986, 5.15924]

>  <score>  (86) 
5.21612

>  <index>  (86) 
88

>  <Smiles>  (86) 
O=C(C(c1c(nc(c2c(c(c(c(c12)[H])[H])[H])[H])[H])[H])([H])[H])N1C(C(C(C(F)(F)[H])(C(C1([H])[H])([H])[H])[H])([H])[H])([H])[H]

>  <h>  (86) 
<NA>

>  <Training>  (86) 
True

>  <Success>  (86) 
True

>  <enamine_searched>  (86) 
False

>  <enamine_id>  (86) 
nan

$$$$

     RDKit          3D

 43 45  0  0  0  0  0  0  0  0999 V2000
   -6.2433    1.4933  -26.6547 C   0  0  0  0  0  0  0  0  0  0  0  0
   -7.4244    1.1175  -25.7539 C   0  0  0  0  0  0  0  0  0  0  0  0
   -8.7218    1.3570  -26.5377 C   0  0  0  0  0  0  0  0  0  0  0  0
   -9.6206    1.1178  -25.9640 H   0  0  0  0  0  0  0  0  0  0  0  0
   -8.7452    0.7465  -27.4467 H   0  0  0  0  0  0  0  0  0  0  0  0
   -8.8016    2.4055  -26.8446 H   0  0  0  0  0  0  0  0  0  0  0  0
   -7.2943   -0.3581  -25.3507 C   0  0  0  0  0  0  0  0  0  0  0  0
   -8.2751   -0.7735  -24.2607 C   0  0  0  0  0  0  0  0  0  0  0  0
   -8.1727    0.1179  -23.1115 N   0  0  0  0  0  0  0  0  0  0  0  0
   -8.3856   -0.3130  -21.7968 C   0  0  0  0  0  0  0  0  0  0  0  0
   -9.1975    0.2063  -21.0627 O   0  0  0  0  0  0  0  0  0  0  0  0
   -7.4463   -1.4117  -21.2715 C   0  0  0  0  0  0  0  0  0  0  0  0
   -6.5716   -0.8339  -20.1769 C   0  0  0  0  0  0  0  0  0  0  0  0
   -6.8761   -1.0401  -18.8562 C   0  0  0  0  0  0  0  0  0  0  0  0
   -6.1848   -0.5355  -17.8007 N   0  0  0  0  0  0  0  0  0  0  0  0
   -5.1525    0.2233  -18.0680 C   0  0  0  0  0  0  0  0  0  0  0  0
   -4.7195    0.5338  -19.3839 C   0  0  0  0  0  0  0  0  0  0  0  0
   -3.5965    1.3643  -19.6249 C   0  0  0  0  0  0  0  0  0  0  0  0
   -3.2092    1.6619  -20.9029 C   0  0  0  0  0  0  0  0  0  0  0  0
   -3.9328    1.1321  -21.9947 C   0  0  0  0  0  0  0  0  0  0  0  0
   -5.0187    0.3173  -21.7860 C   0  0  0  0  0  0  0  0  0  0  0  0
   -5.4494   -0.0022  -20.4726 C   0  0  0  0  0  0  0  0  0  0  0  0
   -5.5534   -0.0868  -22.6378 H   0  0  0  0  0  0  0  0  0  0  0  0
   -3.6190    1.3735  -23.0055 H   0  0  0  0  0  0  0  0  0  0  0  0
   -2.3597    2.3140  -21.0837 H   0  0  0  0  0  0  0  0  0  0  0  0
   -3.0648    1.7816  -18.7736 H   0  0  0  0  0  0  0  0  0  0  0  0
   -4.6018    0.6277  -17.2167 H   0  0  0  0  0  0  0  0  0  0  0  0
   -7.7277   -1.6592  -18.5801 H   0  0  0  0  0  0  0  0  0  0  0  0
   -8.0662   -2.2085  -20.8442 H   0  0  0  0  0  0  0  0  0  0  0  0
   -6.8370   -1.8405  -22.0766 H   0  0  0  0  0  0  0  0  0  0  0  0
   -8.3837    1.5279  -23.4124 C   0  0  0  0  0  0  0  0  0  0  0  0
   -7.3927    1.9820  -24.4852 C   0  0  0  0  0  0  0  0  0  0  0  0
   -7.5795    3.0274  -24.7520 H   0  0  0  0  0  0  0  0  0  0  0  0
   -6.3829    1.9554  -24.0540 H   0  0  0  0  0  0  0  0  0  0  0  0
   -9.4179    1.7505  -23.7176 H   0  0  0  0  0  0  0  0  0  0  0  0
   -8.2169    2.0835  -22.4896 H   0  0  0  0  0  0  0  0  0  0  0  0
   -9.2994   -0.7964  -24.6737 H   0  0  0  0  0  0  0  0  0  0  0  0
   -8.0676   -1.7877  -23.9242 H   0  0  0  0  0  0  0  0  0  0  0  0
   -6.2786   -0.5400  -24.9813 H   0  0  0  0  0  0  0  0  0  0  0  0
   -7.4236   -0.9923  -26.2346 H   0  0  0  0  0  0  0  0  0  0  0  0
   -5.2856    1.3411  -26.1447 H   0  0  0  0  0  0  0  0  0  0  0  0
   -6.2926    2.5454  -26.9587 H   0  0  0  0  0  0  0  0  0  0  0  0
   -6.2308    0.8849  -27.5668 H   0  0  0  0  0  0  0  0  0  0  0  0
  1  2  1  0
  2  3  1  0
  3  4  1  0
  3  5  1  0
  3  6  1  0
  2  7  1  0
  7  8  1  0
  8  9  1  0
  9 10  1  0
 10 11  2  0
 10 12  1  0
 12 13  1  0
 13 14  2  0
 14 15  1  0
 15 16  2  0
 16 17  1  0
 17 18  2  0
 18 19  1  0
 19 20  2  0
 20 21  1  0
 21 22  2  0
 21 23  1  0
 20 24  1  0
 19 25  1  0
 18 26  1  0
 16 27  1  0
 14 28  1  0
 12 29  1  0
 12 30  1  0
  9 31  1  0
 31 32  1  0
 32 33  1  0
 32 34  1  0
 31 35  1  0
 31 36  1  0
  8 37  1  0
  8 38  1  0
  7 39  1  0
  7 40  1  0
  1 41  1  0
  1 42  1  0
  1 43  1  0
 32  2  1  0
 22 13  1  0
 22 17  1  0
M  END
>  <cnnaffinities>  (87) 
[5.1413, 5.14135, 5.14127, 5.14131, 4.93501, 4.93511, 4.93513, 5.1364, 5.13637, 5.13636, 5.08898]

>  <score>  (87) 
5.1413

>  <index>  (87) 
89

>  <Smiles>  (87) 
C(C1(C([H])([H])[H])C(C(N(C(=O)C(c2c(nc(c3c(c(c(c(c23)[H])[H])[H])[H])[H])[H])([H])[H])C(C1([H])[H])([H])[H])([H])[H])([H])[H])([H])([H])[H]

>  <h>  (87) 
<NA>

>  <Training>  (87) 
True

>  <Success>  (87) 
True

>  <enamine_searched>  (87) 
False

>  <enamine_id>  (87) 
nan

$$$$

     RDKit          3D

 64 68  0  0  0  0  0  0  0  0999 V2000
   -7.6101    3.1790  -21.8918 C   0  0  0  0  0  0  0  0  0  0  0  0
   -8.7398    2.7026  -22.6762 N   0  0  0  0  0  0  0  0  0  0  0  0
   -8.4077    1.9005  -23.7297 C   0  0  0  0  0  0  0  0  0  0  0  0
   -7.2403    1.6573  -24.0123 O   0  0  0  0  0  0  0  0  0  0  0  0
   -9.5438    1.2923  -24.5410 C   0  0  0  0  0  0  0  0  0  0  0  0
  -10.0117    0.0893  -23.8929 N   0  0  0  0  0  0  0  0  0  0  0  0
   -9.1713   -1.0996  -23.9237 C   0  0  0  0  0  0  0  0  0  0  0  0
   -9.2712   -1.8736  -22.5832 C   0  0  2  0  0  0  0  0  0  0  0  0
   -8.6766   -0.9802  -21.4669 C   0  0  0  0  0  0  0  0  0  0  0  0
   -9.2047   -0.0165  -20.9468 O   0  0  0  0  0  0  0  0  0  0  0  0
   -7.4024   -1.4269  -21.1845 N   0  0  0  0  0  0  0  0  0  0  0  0
   -6.6120   -0.8304  -20.1730 C   0  0  0  0  0  0  0  0  0  0  0  0
   -6.9225   -1.0473  -18.8527 C   0  0  0  0  0  0  0  0  0  0  0  0
   -6.2129   -0.5545  -17.8118 N   0  0  0  0  0  0  0  0  0  0  0  0
   -5.1735    0.1932  -18.0874 C   0  0  0  0  0  0  0  0  0  0  0  0
   -4.7458    0.5083  -19.4073 C   0  0  0  0  0  0  0  0  0  0  0  0
   -3.6243    1.3443  -19.6483 C   0  0  0  0  0  0  0  0  0  0  0  0
   -3.2554    1.6559  -20.9272 C   0  0  0  0  0  0  0  0  0  0  0  0
   -3.9919    1.1543  -22.0217 C   0  0  0  0  0  0  0  0  0  0  0  0
   -5.0840    0.3418  -21.8164 C   0  0  0  0  0  0  0  0  0  0  0  0
   -5.4838   -0.0122  -20.4975 C   0  0  0  0  0  0  0  0  0  0  0  0
   -5.6632    0.0077  -22.6718 H   0  0  0  0  0  0  0  0  0  0  0  0
   -3.6946    1.4151  -23.0328 H   0  0  0  0  0  0  0  0  0  0  0  0
   -2.4024    2.3041  -21.1043 H   0  0  0  0  0  0  0  0  0  0  0  0
   -3.0888    1.7455  -18.7922 H   0  0  0  0  0  0  0  0  0  0  0  0
   -4.6082    0.5966  -17.2460 H   0  0  0  0  0  0  0  0  0  0  0  0
   -7.7835   -1.6620  -18.6019 H   0  0  0  0  0  0  0  0  0  0  0  0
   -6.9858   -2.5713  -21.9689 C   0  0  0  0  0  0  0  0  0  0  0  0
   -8.3228   -3.1009  -22.5246 C   0  0  2  0  0  0  0  0  0  0  0  0
   -8.1876   -3.9032  -23.8191 C   0  0  0  0  0  0  0  0  0  0  0  0
   -7.4082   -5.4804  -23.5088 S   0  0  0  0  0  0  0  0  0  0  0  0
   -8.2549   -6.2449  -22.6005 O   0  0  0  0  0  0  0  0  0  0  0  0
   -6.0129   -5.2748  -23.1483 O   0  0  0  0  0  0  0  0  0  0  0  0
   -7.3809   -6.1325  -25.0489 N   0  0  0  0  0  0  0  0  0  0  0  0
   -8.6171   -6.6624  -25.6223 C   0  0  0  0  0  0  0  0  0  0  0  0
   -9.2686   -5.8418  -25.9447 H   0  0  0  0  0  0  0  0  0  0  0  0
   -9.1626   -7.3188  -24.9342 H   0  0  0  0  0  0  0  0  0  0  0  0
   -8.3480   -7.2257  -26.5189 H   0  0  0  0  0  0  0  0  0  0  0  0
   -6.5834   -6.7578  -25.1044 H   0  0  0  0  0  0  0  0  0  0  0  0
   -7.5863   -3.3877  -24.5739 H   0  0  0  0  0  0  0  0  0  0  0  0
   -9.1713   -4.1119  -24.2499 H   0  0  0  0  0  0  0  0  0  0  0  0
   -8.7153   -3.7879  -21.7715 H   0  0  0  0  0  0  0  0  0  0  0  0
   -6.4844   -3.3153  -21.3454 H   0  0  0  0  0  0  0  0  0  0  0  0
   -6.2917   -2.2830  -22.7745 H   0  0  0  0  0  0  0  0  0  0  0  0
  -10.7474   -2.1477  -22.3422 C   0  0  0  0  0  0  0  0  0  0  0  0
  -11.2133   -3.2514  -21.6222 C   0  0  0  0  0  0  0  0  0  0  0  0
  -12.5576   -3.3353  -21.3149 C   0  0  0  0  0  0  0  0  0  0  0  0
  -12.9702   -4.2818  -20.4596 F   0  0  0  0  0  0  0  0  0  0  0  0
  -13.5101   -2.4529  -21.8011 C   0  0  0  0  0  0  0  0  0  0  0  0
  -13.0602   -1.3744  -22.5300 C   0  0  0  0  0  0  0  0  0  0  0  0
  -11.6948   -1.1865  -22.7319 C   0  0  0  0  0  0  0  0  0  0  0  0
  -11.2423    0.1141  -23.3123 C   0  0  0  0  0  0  0  0  0  0  0  0
  -11.9161    1.1380  -23.2649 O   0  0  0  0  0  0  0  0  0  0  0  0
  -13.7504   -0.6411  -22.9283 H   0  0  0  0  0  0  0  0  0  0  0  0
  -14.5551   -2.6016  -21.5574 H   0  0  0  0  0  0  0  0  0  0  0  0
  -10.5601   -4.0257  -21.2395 H   0  0  0  0  0  0  0  0  0  0  0  0
   -9.4871   -1.7505  -24.7506 H   0  0  0  0  0  0  0  0  0  0  0  0
   -8.1390   -0.7752  -24.1027 H   0  0  0  0  0  0  0  0  0  0  0  0
  -10.3934    1.9714  -24.6392 H   0  0  0  0  0  0  0  0  0  0  0  0
   -9.1562    1.0410  -25.5330 H   0  0  0  0  0  0  0  0  0  0  0  0
   -9.6157    2.5695  -22.1782 H   0  0  0  0  0  0  0  0  0  0  0  0
   -7.9271    3.9194  -21.1534 H   0  0  0  0  0  0  0  0  0  0  0  0
   -7.0914    2.3338  -21.4100 H   0  0  0  0  0  0  0  0  0  0  0  0
   -6.9057    3.6614  -22.5728 H   0  0  0  0  0  0  0  0  0  0  0  0
  1  2  1  0
  2  3  1  0
  3  4  2  0
  3  5  1  0
  5  6  1  0
  6  7  1  0
  8  7  1  6
  8  9  1  0
  9 10  2  0
  9 11  1  0
 11 12  1  0
 12 13  2  0
 13 14  1  0
 14 15  2  0
 15 16  1  0
 16 17  2  0
 17 18  1  0
 18 19  2  0
 19 20  1  0
 20 21  2  0
 20 22  1  0
 19 23  1  0
 18 24  1  0
 17 25  1  0
 15 26  1  0
 13 27  1  0
 11 28  1  0
 28 29  1  0
 29 30  1  0
 30 31  1  0
 31 32  2  0
 31 33  2  0
 31 34  1  0
 34 35  1  0
 35 36  1  0
 35 37  1  0
 35 38  1  0
 34 39  1  0
 30 40  1  0
 30 41  1  0
 29 42  1  1
 28 43  1  0
 28 44  1  0
  8 45  1  0
 45 46  2  0
 46 47  1  0
 47 48  1  0
 47 49  2  0
 49 50  1  0
 50 51  2  0
 51 52  1  0
 52 53  2  0
 50 54  1  0
 49 55  1  0
 46 56  1  0
  7 57  1  0
  7 58  1  0
  5 59  1  0
  5 60  1  0
  2 61  1  0
  1 62  1  0
  1 63  1  0
  1 64  1  0
 52  6  1  0
 29  8  1  0
 51 45  1  0
 21 12  1  0
 21 16  1  0
M  END
>  <cnnaffinities>  (88) 
[6.83902]

>  <score>  (88) 
6.83902

>  <index>  (88) 
90

>  <Smiles>  (88) 
C(N(C(=O)C(N1C([C@@]2(C(=O)N(c3c(nc(c4c(c(c(c(c34)[H])[H])[H])[H])[H])[H])C([C@@]2(C(S(=O)(=O)N(C([H])([H])[H])[H])([H])[H])[H])([H])[H])c2c(c(F)c(c(c2C1=O)[H])[H])[H])([H])[H])([H])[H])[H])([H])([H])[H]

>  <h>  (88) 
<NA>

>  <Training>  (88) 
True

>  <Success>  (88) 
True

>  <enamine_searched>  (88) 
False

>  <enamine_id>  (88) 
nan

$$$$

     RDKit          3D

 66 71  0  0  0  0  0  0  0  0999 V2000
   -7.4764    3.3237  -21.9212 C   0  0  0  0  0  0  0  0  0  0  0  0
   -8.5448    2.8165  -22.7610 N   0  0  0  0  0  0  0  0  0  0  0  0
   -8.2080    2.0438  -23.8216 C   0  0  0  0  0  0  0  0  0  0  0  0
   -7.0424    1.7754  -24.0765 O   0  0  0  0  0  0  0  0  0  0  0  0
   -9.3718    1.4892  -24.6491 C   0  0  0  0  0  0  0  0  0  0  0  0
   -9.9067    0.3115  -23.9953 N   0  0  0  0  0  0  0  0  0  0  0  0
   -9.1332   -0.9224  -24.0265 C   0  0  0  0  0  0  0  0  0  0  0  0
   -9.2779   -1.7204  -22.7022 C   0  0  2  0  0  0  0  0  0  0  0  0
   -8.6622   -0.8726  -21.5490 C   0  0  0  0  0  0  0  0  0  0  0  0
   -9.1402    0.1109  -21.0195 O   0  0  0  0  0  0  0  0  0  0  0  0
   -7.4431   -1.4085  -21.2091 N   0  0  0  0  0  0  0  0  0  0  0  0
   -6.6391   -0.8206  -20.1997 C   0  0  0  0  0  0  0  0  0  0  0  0
   -6.9465   -1.0470  -18.8810 C   0  0  0  0  0  0  0  0  0  0  0  0
   -6.2295   -0.5707  -17.8373 N   0  0  0  0  0  0  0  0  0  0  0  0
   -5.1860    0.1727  -18.1059 C   0  0  0  0  0  0  0  0  0  0  0  0
   -4.7564    0.4940  -19.4233 C   0  0  0  0  0  0  0  0  0  0  0  0
   -3.6314    1.3282  -19.6551 C   0  0  0  0  0  0  0  0  0  0  0  0
   -3.2555    1.6473  -20.9304 C   0  0  0  0  0  0  0  0  0  0  0  0
   -3.9939    1.1548  -22.0291 C   0  0  0  0  0  0  0  0  0  0  0  0
   -5.0939    0.3497  -21.8325 C   0  0  0  0  0  0  0  0  0  0  0  0
   -5.5016   -0.0098  -20.5177 C   0  0  0  0  0  0  0  0  0  0  0  0
   -5.6775    0.0219  -22.6880 H   0  0  0  0  0  0  0  0  0  0  0  0
   -3.6983    1.4258  -23.0383 H   0  0  0  0  0  0  0  0  0  0  0  0
   -2.4013    2.2969  -21.1026 H   0  0  0  0  0  0  0  0  0  0  0  0
   -3.1005    1.7228  -18.7932 H   0  0  0  0  0  0  0  0  0  0  0  0
   -4.6199    0.5666  -17.2602 H   0  0  0  0  0  0  0  0  0  0  0  0
   -7.8137   -1.6532  -18.6294 H   0  0  0  0  0  0  0  0  0  0  0  0
   -7.0709   -2.5685  -21.9884 C   0  0  0  0  0  0  0  0  0  0  0  0
   -8.3780   -2.9910  -22.6805 C   0  0  2  0  0  0  0  0  0  0  0  0
   -8.0414   -3.7027  -23.9991 C   0  0  0  0  0  0  0  0  0  0  0  0
   -9.2194   -4.1523  -24.6946 N   0  0  0  0  0  0  0  0  0  0  0  0
   -9.2394   -4.8073  -25.9002 C   0  0  0  0  0  0  0  0  0  0  0  0
   -8.0814   -5.2425  -26.5836 C   0  0  0  0  0  0  0  0  0  0  0  0
   -8.1511   -5.9433  -27.7074 N   0  0  0  0  0  0  0  0  0  0  0  0
   -9.3654   -6.2144  -28.1995 C   0  0  0  0  0  0  0  0  0  0  0  0
  -10.4990   -5.7356  -27.5665 C   0  0  0  0  0  0  0  0  0  0  0  0
  -10.4345   -5.0417  -26.4344 N   0  0  0  0  0  0  0  0  0  0  0  0
  -11.4940   -5.8984  -27.9785 H   0  0  0  0  0  0  0  0  0  0  0  0
   -9.4341   -6.8226  -29.0993 H   0  0  0  0  0  0  0  0  0  0  0  0
   -7.0872   -5.0268  -26.1998 H   0  0  0  0  0  0  0  0  0  0  0  0
  -10.1256   -3.9056  -24.3213 H   0  0  0  0  0  0  0  0  0  0  0  0
   -7.3960   -4.5630  -23.7700 H   0  0  0  0  0  0  0  0  0  0  0  0
   -7.4425   -3.0282  -24.6310 H   0  0  0  0  0  0  0  0  0  0  0  0
   -8.8800   -3.7099  -22.0303 H   0  0  0  0  0  0  0  0  0  0  0  0
   -6.2976   -2.3131  -22.7284 H   0  0  0  0  0  0  0  0  0  0  0  0
   -6.6652   -3.3616  -21.3514 H   0  0  0  0  0  0  0  0  0  0  0  0
  -10.7707   -1.9193  -22.4504 C   0  0  0  0  0  0  0  0  0  0  0  0
  -11.3185   -3.0111  -21.7614 C   0  0  0  0  0  0  0  0  0  0  0  0
  -12.6739   -3.0346  -21.4659 C   0  0  0  0  0  0  0  0  0  0  0  0
  -13.3330   -4.2259  -20.3847 Cl  0  0  0  0  0  0  0  0  0  0  0  0
  -13.5387   -2.0461  -21.9268 C   0  0  0  0  0  0  0  0  0  0  0  0
  -13.0062   -0.9450  -22.5616 C   0  0  0  0  0  0  0  0  0  0  0  0
  -11.6355   -0.8650  -22.7887 C   0  0  0  0  0  0  0  0  0  0  0  0
  -11.0917    0.4199  -23.3354 C   0  0  0  0  0  0  0  0  0  0  0  0
  -11.6771    1.4912  -23.2158 O   0  0  0  0  0  0  0  0  0  0  0  0
  -13.6361   -0.1175  -22.8706 H   0  0  0  0  0  0  0  0  0  0  0  0
  -14.6048   -2.1540  -21.7653 H   0  0  0  0  0  0  0  0  0  0  0  0
  -10.7090   -3.8375  -21.4143 H   0  0  0  0  0  0  0  0  0  0  0  0
   -8.0797   -0.6706  -24.1829 H   0  0  0  0  0  0  0  0  0  0  0  0
   -9.4655   -1.5326  -24.8734 H   0  0  0  0  0  0  0  0  0  0  0  0
  -10.1805    2.2174  -24.7572 H   0  0  0  0  0  0  0  0  0  0  0  0
   -9.0025    1.2381  -25.6483 H   0  0  0  0  0  0  0  0  0  0  0  0
   -9.4762    2.7689  -22.3771 H   0  0  0  0  0  0  0  0  0  0  0  0
   -7.8835    3.9932  -21.1598 H   0  0  0  0  0  0  0  0  0  0  0  0
   -6.9230    2.4880  -21.4697 H   0  0  0  0  0  0  0  0  0  0  0  0
   -6.7731    3.8959  -22.5303 H   0  0  0  0  0  0  0  0  0  0  0  0
  1  2  1  0
  2  3  1  0
  3  4  2  0
  3  5  1  0
  5  6  1  0
  6  7  1  0
  8  7  1  6
  8  9  1  0
  9 10  2  0
  9 11  1  0
 11 12  1  0
 12 13  2  0
 13 14  1  0
 14 15  2  0
 15 16  1  0
 16 17  2  0
 17 18  1  0
 18 19  2  0
 19 20  1  0
 20 21  2  0
 20 22  1  0
 19 23  1  0
 18 24  1  0
 17 25  1  0
 15 26  1  0
 13 27  1  0
 11 28  1  0
 28 29  1  0
 29 30  1  0
 30 31  1  0
 31 32  1  0
 32 33  2  0
 33 34  1  0
 34 35  2  0
 35 36  1  0
 36 37  2  0
 36 38  1  0
 35 39  1  0
 33 40  1  0
 31 41  1  0
 30 42  1  0
 30 43  1  0
 29 44  1  1
 28 45  1  0
 28 46  1  0
  8 47  1  0
 47 48  2  0
 48 49  1  0
 49 50  1  0
 49 51  2  0
 51 52  1  0
 52 53  2  0
 53 54  1  0
 54 55  2  0
 52 56  1  0
 51 57  1  0
 48 58  1  0
  7 59  1  0
  7 60  1  0
  5 61  1  0
  5 62  1  0
  2 63  1  0
  1 64  1  0
  1 65  1  0
  1 66  1  0
 54  6  1  0
 29  8  1  0
 37 32  1  0
 53 47  1  0
 21 12  1  0
 21 16  1  0
M  END
>  <cnnaffinities>  (89) 
[6.63076]

>  <score>  (89) 
6.63076

>  <index>  (89) 
91

>  <Smiles>  (89) 
C(N(C(=O)C(N1C([C@@]2(C(=O)N(c3c(nc(c4c(c(c(c(c34)[H])[H])[H])[H])[H])[H])C([C@@]2(C(N(c2c(nc(c(n2)[H])[H])[H])[H])([H])[H])[H])([H])[H])c2c(c(Cl)c(c(c2C1=O)[H])[H])[H])([H])[H])([H])[H])[H])([H])([H])[H]

>  <h>  (89) 
<NA>

>  <Training>  (89) 
True

>  <Success>  (89) 
True

>  <enamine_searched>  (89) 
False

>  <enamine_id>  (89) 
nan

$$$$

     RDKit          3D

 60 65  0  0  0  0  0  0  0  0999 V2000
   -7.1889   -5.5758  -24.9518 C   0  0  0  0  0  0  0  0  0  0  0  0
   -7.4396   -4.9035  -23.7457 O   0  0  0  0  0  0  0  0  0  0  0  0
   -8.1699   -3.7219  -23.9381 C   0  0  0  0  0  0  0  0  0  0  0  0
   -8.3450   -3.0394  -22.5887 C   0  0  1  0  0  0  0  0  0  0  0  0
   -7.0131   -2.5499  -21.9753 C   0  0  0  0  0  0  0  0  0  0  0  0
   -7.4019   -1.3673  -21.2239 N   0  0  0  0  0  0  0  0  0  0  0  0
   -6.6122   -0.8111  -20.1857 C   0  0  0  0  0  0  0  0  0  0  0  0
   -6.9261   -1.0391  -18.8677 C   0  0  0  0  0  0  0  0  0  0  0  0
   -6.2126   -0.5550  -17.8242 N   0  0  0  0  0  0  0  0  0  0  0  0
   -5.1744    0.1967  -18.0927 C   0  0  0  0  0  0  0  0  0  0  0  0
   -4.7356    0.5121  -19.4085 C   0  0  0  0  0  0  0  0  0  0  0  0
   -3.6200    1.3566  -19.6514 C   0  0  0  0  0  0  0  0  0  0  0  0
   -3.2419    1.6511  -20.9323 C   0  0  0  0  0  0  0  0  0  0  0  0
   -3.9366    1.0899  -22.0244 C   0  0  0  0  0  0  0  0  0  0  0  0
   -4.9914    0.2312  -21.8099 C   0  0  0  0  0  0  0  0  0  0  0  0
   -5.4492   -0.0410  -20.4951 C   0  0  0  0  0  0  0  0  0  0  0  0
   -5.5176   -0.2026  -22.6531 H   0  0  0  0  0  0  0  0  0  0  0  0
   -3.6459    1.3679  -23.0342 H   0  0  0  0  0  0  0  0  0  0  0  0
   -2.4063    2.3213  -21.1125 H   0  0  0  0  0  0  0  0  0  0  0  0
   -3.0947    1.7740  -18.7977 H   0  0  0  0  0  0  0  0  0  0  0  0
   -4.6200    0.5990  -17.2448 H   0  0  0  0  0  0  0  0  0  0  0  0
   -7.7870   -1.6534  -18.6130 H   0  0  0  0  0  0  0  0  0  0  0  0
   -8.6956   -0.9457  -21.4623 C   0  0  0  0  0  0  0  0  0  0  0  0
   -9.2496   -0.0431  -20.8763 O   0  0  0  0  0  0  0  0  0  0  0  0
   -9.2860   -1.8104  -22.6042 C   0  0  1  0  0  0  0  0  0  0  0  0
   -9.1745   -1.0399  -23.9441 C   0  0  0  0  0  0  0  0  0  0  0  0
   -9.9934    0.1516  -23.9407 N   0  0  0  0  0  0  0  0  0  0  0  0
   -9.4500    1.3367  -24.5822 C   0  0  0  0  0  0  0  0  0  0  0  0
   -8.4824    2.0661  -23.6963 C   0  0  0  0  0  0  0  0  0  0  0  0
   -8.9188    2.9083  -22.6541 C   0  0  0  0  0  0  0  0  0  0  0  0
   -7.9162    3.3644  -21.9086 N   0  0  0  0  0  0  0  0  0  0  0  0
   -6.8324    2.8165  -22.4621 N   0  0  0  0  0  0  0  0  0  0  0  0
   -7.1092    2.0249  -23.5325 C   0  0  0  0  0  0  0  0  0  0  0  0
   -6.2925    1.5046  -24.0204 H   0  0  0  0  0  0  0  0  0  0  0  0
   -5.9261    2.9876  -22.0425 H   0  0  0  0  0  0  0  0  0  0  0  0
   -9.9358    3.1914  -22.4380 H   0  0  0  0  0  0  0  0  0  0  0  0
   -9.0013    1.0484  -25.5387 H   0  0  0  0  0  0  0  0  0  0  0  0
  -10.2972    1.9879  -24.7973 H   0  0  0  0  0  0  0  0  0  0  0  0
  -11.2398    0.1819  -23.3773 C   0  0  0  0  0  0  0  0  0  0  0  0
  -11.9368    1.1934  -23.3669 O   0  0  0  0  0  0  0  0  0  0  0  0
  -11.7012   -1.1086  -22.7658 C   0  0  0  0  0  0  0  0  0  0  0  0
  -13.0659   -1.2843  -22.5292 C   0  0  0  0  0  0  0  0  0  0  0  0
  -13.5139   -2.3612  -21.7954 C   0  0  0  0  0  0  0  0  0  0  0  0
  -12.5660   -3.2526  -21.3028 C   0  0  0  0  0  0  0  0  0  0  0  0
  -13.1151   -4.3837  -20.1147 Cl  0  0  0  0  0  0  0  0  0  0  0  0
  -11.2238   -3.1756  -21.6364 C   0  0  0  0  0  0  0  0  0  0  0  0
  -10.7627   -2.0781  -22.3744 C   0  0  0  0  0  0  0  0  0  0  0  0
  -10.5585   -3.9455  -21.2554 H   0  0  0  0  0  0  0  0  0  0  0  0
  -14.5631   -2.5042  -21.5493 H   0  0  0  0  0  0  0  0  0  0  0  0
  -13.7683   -0.5520  -22.9091 H   0  0  0  0  0  0  0  0  0  0  0  0
   -9.4855   -1.6967  -24.7681 H   0  0  0  0  0  0  0  0  0  0  0  0
   -8.1308   -0.7484  -24.1085 H   0  0  0  0  0  0  0  0  0  0  0  0
   -6.2664   -2.3066  -22.7454 H   0  0  0  0  0  0  0  0  0  0  0  0
   -6.5732   -3.3047  -21.3147 H   0  0  0  0  0  0  0  0  0  0  0  0
   -8.7469   -3.7893  -21.9042 H   0  0  0  0  0  0  0  0  0  0  0  0
   -9.1559   -3.9383  -24.3876 H   0  0  0  0  0  0  0  0  0  0  0  0
   -7.6390   -3.0529  -24.6396 H   0  0  0  0  0  0  0  0  0  0  0  0
   -6.5710   -4.9696  -25.6331 H   0  0  0  0  0  0  0  0  0  0  0  0
   -8.1242   -5.8314  -25.4739 H   0  0  0  0  0  0  0  0  0  0  0  0
   -6.6533   -6.4964  -24.7073 H   0  0  0  0  0  0  0  0  0  0  0  0
  1  2  1  0
  2  3  1  0
  3  4  1  0
  4  5  1  0
  5  6  1  0
  6  7  1  0
  7  8  2  0
  8  9  1  0
  9 10  2  0
 10 11  1  0
 11 12  2  0
 12 13  1  0
 13 14  2  0
 14 15  1  0
 15 16  2  0
 15 17  1  0
 14 18  1  0
 13 19  1  0
 12 20  1  0
 10 21  1  0
  8 22  1  0
  6 23  1  0
 23 24  2  0
 23 25  1  0
 25 26  1  6
 26 27  1  0
 27 28  1  0
 28 29  1  0
 29 30  1  0
 30 31  2  0
 31 32  1  0
 32 33  1  0
 33 34  1  0
 32 35  1  0
 30 36  1  0
 28 37  1  0
 28 38  1  0
 27 39  1  0
 39 40  2  0
 39 41  1  0
 41 42  2  0
 42 43  1  0
 43 44  2  0
 44 45  1  0
 44 46  1  0
 46 47  2  0
 46 48  1  0
 43 49  1  0
 42 50  1  0
 26 51  1  0
 26 52  1  0
  5 53  1  0
  5 54  1  0
  4 55  1  1
  3 56  1  0
  3 57  1  0
  1 58  1  0
  1 59  1  0
  1 60  1  0
 25  4  1  0
 33 29  2  0
 47 41  1  0
 16  7  1  0
 47 25  1  0
 16 11  1  0
M  END
>  <cnnaffinities>  (90) 
[6.57861]

>  <score>  (90) 
6.57861

>  <index>  (90) 
92

>  <Smiles>  (90) 
C(OC([C@]1(C(N(c2c(nc(c3c(c(c(c(c23)[H])[H])[H])[H])[H])[H])C(=O)[C@]21C(N(C(c1c(nn(c1[H])[H])[H])([H])[H])C(=O)c1c(c(c(Cl)c(c21)[H])[H])[H])([H])[H])([H])[H])[H])([H])[H])([H])([H])[H]

>  <h>  (90) 
<NA>

>  <Training>  (90) 
True

>  <Success>  (90) 
True

>  <enamine_searched>  (90) 
False

>  <enamine_id>  (90) 
nan

$$$$

     RDKit          3D

 62 67  0  0  0  0  0  0  0  0999 V2000
  -11.3119    4.3274  -25.2227 C   0  0  0  0  0  0  0  0  0  0  0  0
   -9.8216    4.1778  -25.5279 C   0  0  0  0  0  0  0  0  0  0  0  0
   -9.0682    3.5914  -24.4243 N   0  0  0  0  0  0  0  0  0  0  0  0
   -8.4895    4.4159  -23.5360 N   0  0  0  0  0  0  0  0  0  0  0  0
   -7.9032    3.6214  -22.6495 C   0  0  0  0  0  0  0  0  0  0  0  0
   -8.1111    2.2666  -22.9709 C   0  0  0  0  0  0  0  0  0  0  0  0
   -8.8915    2.2782  -24.1017 C   0  0  0  0  0  0  0  0  0  0  0  0
   -9.4003    1.1011  -24.8866 C   0  0  0  0  0  0  0  0  0  0  0  0
   -9.8537    0.0079  -24.0473 N   0  0  0  0  0  0  0  0  0  0  0  0
   -9.0454   -1.1956  -23.9711 C   0  0  0  0  0  0  0  0  0  0  0  0
   -9.2204   -1.9254  -22.6133 C   0  0  2  0  0  0  0  0  0  0  0  0
   -8.6627   -1.0316  -21.4677 C   0  0  0  0  0  0  0  0  0  0  0  0
   -9.2273   -0.1112  -20.9149 O   0  0  0  0  0  0  0  0  0  0  0  0
   -7.3732   -1.4354  -21.1930 N   0  0  0  0  0  0  0  0  0  0  0  0
   -6.5994   -0.8253  -20.1698 C   0  0  0  0  0  0  0  0  0  0  0  0
   -6.9052   -1.0482  -18.8501 C   0  0  0  0  0  0  0  0  0  0  0  0
   -6.1941   -0.5484  -17.8104 N   0  0  0  0  0  0  0  0  0  0  0  0
   -5.1614    0.2069  -18.0830 C   0  0  0  0  0  0  0  0  0  0  0  0
   -4.7274    0.5233  -19.3997 C   0  0  0  0  0  0  0  0  0  0  0  0
   -3.6030    1.3569  -19.6425 C   0  0  0  0  0  0  0  0  0  0  0  0
   -3.2256    1.6597  -20.9205 C   0  0  0  0  0  0  0  0  0  0  0  0
   -3.9571    1.1414  -22.0125 C   0  0  0  0  0  0  0  0  0  0  0  0
   -5.0485    0.3277  -21.8024 C   0  0  0  0  0  0  0  0  0  0  0  0
   -5.4641   -0.0065  -20.4870 C   0  0  0  0  0  0  0  0  0  0  0  0
   -5.6037   -0.0614  -22.6512 H   0  0  0  0  0  0  0  0  0  0  0  0
   -3.6624    1.3983  -23.0240 H   0  0  0  0  0  0  0  0  0  0  0  0
   -2.3783    2.3165  -21.1006 H   0  0  0  0  0  0  0  0  0  0  0  0
   -3.0751    1.7703  -18.7868 H   0  0  0  0  0  0  0  0  0  0  0  0
   -4.6141    0.6158  -17.2330 H   0  0  0  0  0  0  0  0  0  0  0  0
   -7.7535   -1.6718  -18.5806 H   0  0  0  0  0  0  0  0  0  0  0  0
   -6.9599   -2.6139  -21.9346 C   0  0  0  0  0  0  0  0  0  0  0  0
   -8.2854   -3.1632  -22.5093 C   0  0  2  0  0  0  0  0  0  0  0  0
   -8.0917   -3.9879  -23.7844 C   0  0  0  0  0  0  0  0  0  0  0  0
   -7.5538   -3.4109  -24.5483 H   0  0  0  0  0  0  0  0  0  0  0  0
   -7.5041   -4.8914  -23.5829 H   0  0  0  0  0  0  0  0  0  0  0  0
   -9.0494   -4.2983  -24.2197 H   0  0  0  0  0  0  0  0  0  0  0  0
   -8.7245   -3.7999  -21.7348 H   0  0  0  0  0  0  0  0  0  0  0  0
   -6.4595   -3.3269  -21.2685 H   0  0  0  0  0  0  0  0  0  0  0  0
   -6.2509   -2.3623  -22.7401 H   0  0  0  0  0  0  0  0  0  0  0  0
  -10.7080   -2.1734  -22.4252 C   0  0  0  0  0  0  0  0  0  0  0  0
  -11.2266   -3.2525  -21.6973 C   0  0  0  0  0  0  0  0  0  0  0  0
  -12.5856   -3.3001  -21.4481 C   0  0  0  0  0  0  0  0  0  0  0  0
  -13.0841   -4.2542  -20.6493 F   0  0  0  0  0  0  0  0  0  0  0  0
  -13.4841   -2.3648  -21.9419 C   0  0  0  0  0  0  0  0  0  0  0  0
  -12.9762   -1.2937  -22.6433 C   0  0  0  0  0  0  0  0  0  0  0  0
  -11.6028   -1.1807  -22.8556 C   0  0  0  0  0  0  0  0  0  0  0  0
  -11.0980    0.0800  -23.4873 C   0  0  0  0  0  0  0  0  0  0  0  0
  -11.7640    1.1065  -23.5002 O   0  0  0  0  0  0  0  0  0  0  0  0
  -13.6157   -0.4985  -23.0093 H   0  0  0  0  0  0  0  0  0  0  0  0
  -14.5381   -2.4867  -21.7222 H   0  0  0  0  0  0  0  0  0  0  0  0
  -10.5949   -4.0114  -21.2481 H   0  0  0  0  0  0  0  0  0  0  0  0
   -9.3086   -1.8949  -24.7824 H   0  0  0  0  0  0  0  0  0  0  0  0
   -7.9961   -0.8997  -24.0909 H   0  0  0  0  0  0  0  0  0  0  0  0
  -10.1917    1.4031  -25.5788 H   0  0  0  0  0  0  0  0  0  0  0  0
   -8.5848    0.6984  -25.4976 H   0  0  0  0  0  0  0  0  0  0  0  0
   -7.7809    1.3723  -22.4630 H   0  0  0  0  0  0  0  0  0  0  0  0
   -7.3644    4.0659  -21.8182 H   0  0  0  0  0  0  0  0  0  0  0  0
   -9.3556    5.1538  -25.7130 H   0  0  0  0  0  0  0  0  0  0  0  0
   -9.6560    3.5510  -26.4128 H   0  0  0  0  0  0  0  0  0  0  0  0
  -11.7670    3.3596  -24.9960 H   0  0  0  0  0  0  0  0  0  0  0  0
  -11.4707    4.9805  -24.3592 H   0  0  0  0  0  0  0  0  0  0  0  0
  -11.8199    4.7643  -26.0884 H   0  0  0  0  0  0  0  0  0  0  0  0
  1  2  1  0
  2  3  1  0
  3  4  1  0
  4  5  2  0
  5  6  1  0
  6  7  2  0
  7  8  1  0
  8  9  1  0
  9 10  1  0
 11 10  1  6
 11 12  1  0
 12 13  2  0
 12 14  1  0
 14 15  1  0
 15 16  2  0
 16 17  1  0
 17 18  2  0
 18 19  1  0
 19 20  2  0
 20 21  1  0
 21 22  2  0
 22 23  1  0
 23 24  2  0
 23 25  1  0
 22 26  1  0
 21 27  1  0
 20 28  1  0
 18 29  1  0
 16 30  1  0
 14 31  1  0
 31 32  1  0
 32 33  1  0
 33 34  1  0
 33 35  1  0
 33 36  1  0
 32 37  1  1
 31 38  1  0
 31 39  1  0
 11 40  1  0
 40 41  2  0
 41 42  1  0
 42 43  1  0
 42 44  2  0
 44 45  1  0
 45 46  2  0
 46 47  1  0
 47 48  2  0
 45 49  1  0
 44 50  1  0
 41 51  1  0
 10 52  1  0
 10 53  1  0
  8 54  1  0
  8 55  1  0
  6 56  1  0
  5 57  1  0
  2 58  1  0
  2 59  1  0
  1 60  1  0
  1 61  1  0
  1 62  1  0
  7  3  1  0
 47  9  1  0
 32 11  1  0
 46 40  1  0
 24 15  1  0
 24 19  1  0
M  END
>  <cnnaffinities>  (91) 
[6.93119]

>  <score>  (91) 
6.93119

>  <index>  (91) 
93

>  <Smiles>  (91) 
C(C(n1nc(c(c1C(N1C([C@@]2(C(=O)N(c3c(nc(c4c(c(c(c(c34)[H])[H])[H])[H])[H])[H])C([C@@]2(C([H])([H])[H])[H])([H])[H])c2c(c(F)c(c(c2C1=O)[H])[H])[H])([H])[H])([H])[H])[H])[H])([H])[H])([H])([H])[H]

>  <h>  (91) 
<NA>

>  <Training>  (91) 
True

>  <Success>  (91) 
True

>  <enamine_searched>  (91) 
False

>  <enamine_id>  (91) 
nan

$$$$

     RDKit          3D

 66 71  0  0  0  0  0  0  0  0999 V2000
   -7.0124    3.0633  -22.6352 C   0  0  0  0  0  0  0  0  0  0  0  0
   -8.1084    2.2549  -23.1466 N   0  0  0  0  0  0  0  0  0  0  0  0
   -8.0651    1.6609  -24.3676 C   0  0  0  0  0  0  0  0  0  0  0  0
   -7.0329    1.5561  -25.0131 O   0  0  0  0  0  0  0  0  0  0  0  0
   -9.4181    1.1282  -24.8798 C   0  0  0  0  0  0  0  0  0  0  0  0
   -9.9614    0.0824  -24.0382 N   0  0  0  0  0  0  0  0  0  0  0  0
   -9.3117   -1.2163  -24.0412 C   0  0  0  0  0  0  0  0  0  0  0  0
   -9.4309   -1.8694  -22.6410 C   0  0  2  0  0  0  0  0  0  0  0  0
   -8.8373   -0.9085  -21.5717 C   0  0  0  0  0  0  0  0  0  0  0  0
   -9.3980    0.0298  -21.0449 O   0  0  0  0  0  0  0  0  0  0  0  0
   -7.5392   -1.2912  -21.3259 N   0  0  0  0  0  0  0  0  0  0  0  0
   -6.7723   -0.7448  -20.2749 C   0  0  0  0  0  0  0  0  0  0  0  0
   -7.0917   -1.0128  -18.9661 C   0  0  0  0  0  0  0  0  0  0  0  0
   -6.3337   -0.6172  -17.9179 N   0  0  0  0  0  0  0  0  0  0  0  0
   -5.2514    0.0765  -18.1747 C   0  0  0  0  0  0  0  0  0  0  0  0
   -4.8215    0.4380  -19.4838 C   0  0  0  0  0  0  0  0  0  0  0  0
   -3.6563    1.2153  -19.7242 C   0  0  0  0  0  0  0  0  0  0  0  0
   -3.3029    1.5637  -20.9972 C   0  0  0  0  0  0  0  0  0  0  0  0
   -4.0873    1.1493  -22.0965 C   0  0  0  0  0  0  0  0  0  0  0  0
   -5.2155    0.3870  -21.8938 C   0  0  0  0  0  0  0  0  0  0  0  0
   -5.6071    0.0177  -20.5794 C   0  0  0  0  0  0  0  0  0  0  0  0
   -5.8370    0.1000  -22.7386 H   0  0  0  0  0  0  0  0  0  0  0  0
   -3.8164    1.4531  -23.1031 H   0  0  0  0  0  0  0  0  0  0  0  0
   -2.4272    2.1843  -21.1698 H   0  0  0  0  0  0  0  0  0  0  0  0
   -3.0761    1.5446  -18.8677 H   0  0  0  0  0  0  0  0  0  0  0  0
   -4.6442    0.3869  -17.3234 H   0  0  0  0  0  0  0  0  0  0  0  0
   -7.9871   -1.5850  -18.7217 H   0  0  0  0  0  0  0  0  0  0  0  0
   -7.1375   -2.4660  -22.0722 C   0  0  0  0  0  0  0  0  0  0  0  0
   -8.4978   -3.0893  -22.4194 C   0  0  2  0  0  0  0  0  0  0  0  0
   -8.4079   -4.2203  -23.4449 C   0  0  0  0  0  0  0  0  0  0  0  0
   -7.7207   -3.8669  -24.6733 N   0  0  0  0  0  0  0  0  0  0  0  0
   -8.1848   -4.1046  -25.9338 C   0  0  0  0  0  0  0  0  0  0  0  0
   -9.5365   -4.4090  -26.1949 C   0  0  0  0  0  0  0  0  0  0  0  0
   -9.8695   -4.6316  -27.5165 C   0  0  0  0  0  0  0  0  0  0  0  0
   -8.9915   -4.5194  -28.5185 N   0  0  0  0  0  0  0  0  0  0  0  0
   -7.7573   -4.1962  -28.1501 C   0  0  0  0  0  0  0  0  0  0  0  0
   -7.2868   -3.9999  -26.9216 N   0  0  0  0  0  0  0  0  0  0  0  0
   -7.0351   -4.0761  -28.9528 H   0  0  0  0  0  0  0  0  0  0  0  0
  -10.8900   -4.9081  -27.7875 H   0  0  0  0  0  0  0  0  0  0  0  0
  -10.2775   -4.4312  -25.4014 H   0  0  0  0  0  0  0  0  0  0  0  0
   -6.7106   -3.8075  -24.6399 H   0  0  0  0  0  0  0  0  0  0  0  0
   -7.8920   -5.0671  -22.9669 H   0  0  0  0  0  0  0  0  0  0  0  0
   -9.4159   -4.5623  -23.6833 H   0  0  0  0  0  0  0  0  0  0  0  0
   -8.8547   -3.5437  -21.4894 H   0  0  0  0  0  0  0  0  0  0  0  0
   -6.5771   -2.1773  -22.9759 H   0  0  0  0  0  0  0  0  0  0  0  0
   -6.4987   -3.1137  -21.4613 H   0  0  0  0  0  0  0  0  0  0  0  0
  -10.9161   -2.0273  -22.3893 C   0  0  0  0  0  0  0  0  0  0  0  0
  -11.4978   -3.0899  -21.6945 C   0  0  0  0  0  0  0  0  0  0  0  0
  -12.8466   -3.0400  -21.3761 C   0  0  0  0  0  0  0  0  0  0  0  0
  -13.5799   -4.2703  -20.4040 Cl  0  0  0  0  0  0  0  0  0  0  0  0
  -13.6665   -1.9934  -21.7835 C   0  0  0  0  0  0  0  0  0  0  0  0
  -13.0999   -0.9433  -22.4682 C   0  0  0  0  0  0  0  0  0  0  0  0
  -11.7410   -0.9580  -22.7600 C   0  0  0  0  0  0  0  0  0  0  0  0
  -11.1763    0.2542  -23.4322 C   0  0  0  0  0  0  0  0  0  0  0  0
  -11.7780    1.3188  -23.4381 O   0  0  0  0  0  0  0  0  0  0  0  0
  -13.6838   -0.0817  -22.7667 H   0  0  0  0  0  0  0  0  0  0  0  0
  -14.7198   -2.0031  -21.5353 H   0  0  0  0  0  0  0  0  0  0  0  0
  -10.9016   -3.9360  -21.3794 H   0  0  0  0  0  0  0  0  0  0  0  0
   -8.2676   -1.0697  -24.3247 H   0  0  0  0  0  0  0  0  0  0  0  0
   -9.7865   -1.8820  -24.7774 H   0  0  0  0  0  0  0  0  0  0  0  0
  -10.1594    1.9310  -24.8781 H   0  0  0  0  0  0  0  0  0  0  0  0
   -9.2902    0.7916  -25.9165 H   0  0  0  0  0  0  0  0  0  0  0  0
   -8.9635    2.2085  -22.6116 H   0  0  0  0  0  0  0  0  0  0  0  0
   -6.7020    2.7547  -21.6275 H   0  0  0  0  0  0  0  0  0  0  0  0
   -7.2779    4.1269  -22.6078 H   0  0  0  0  0  0  0  0  0  0  0  0
   -6.1661    2.9410  -23.3130 H   0  0  0  0  0  0  0  0  0  0  0  0
  1  2  1  0
  2  3  1  0
  3  4  2  0
  3  5  1  0
  5  6  1  0
  6  7  1  0
  8  7  1  6
  8  9  1  0
  9 10  2  0
  9 11  1  0
 11 12  1  0
 12 13  2  0
 13 14  1  0
 14 15  2  0
 15 16  1  0
 16 17  2  0
 17 18  1  0
 18 19  2  0
 19 20  1  0
 20 21  2  0
 20 22  1  0
 19 23  1  0
 18 24  1  0
 17 25  1  0
 15 26  1  0
 13 27  1  0
 11 28  1  0
 28 29  1  0
 29 30  1  0
 30 31  1  0
 31 32  1  0
 32 33  2  0
 33 34  1  0
 34 35  2  0
 35 36  1  0
 36 37  2  0
 36 38  1  0
 34 39  1  0
 33 40  1  0
 31 41  1  0
 30 42  1  0
 30 43  1  0
 29 44  1  1
 28 45  1  0
 28 46  1  0
  8 47  1  0
 47 48  2  0
 48 49  1  0
 49 50  1  0
 49 51  2  0
 51 52  1  0
 52 53  2  0
 53 54  1  0
 54 55  2  0
 52 56  1  0
 51 57  1  0
 48 58  1  0
  7 59  1  0
  7 60  1  0
  5 61  1  0
  5 62  1  0
  2 63  1  0
  1 64  1  0
  1 65  1  0
  1 66  1  0
 54  6  1  0
 29  8  1  0
 37 32  1  0
 53 47  1  0
 21 12  1  0
 21 16  1  0
M  END
>  <cnnaffinities>  (92) 
[6.65654]

>  <score>  (92) 
6.65654

>  <index>  (92) 
95

>  <Smiles>  (92) 
C(N(C(=O)C(N1C([C@@]2(C(=O)N(c3c(nc(c4c(c(c(c(c34)[H])[H])[H])[H])[H])[H])C([C@@]2(C(N(c2c(c(nc(n2)[H])[H])[H])[H])([H])[H])[H])([H])[H])c2c(c(Cl)c(c(c2C1=O)[H])[H])[H])([H])[H])([H])[H])[H])([H])([H])[H]

>  <h>  (92) 
<NA>

>  <Training>  (92) 
True

>  <Success>  (92) 
True

>  <enamine_searched>  (92) 
False

>  <enamine_id>  (92) 
nan

$$$$

     RDKit          3D

 66 70  0  0  0  0  0  0  0  0999 V2000
   -6.8071    3.4538  -23.0559 C   0  0  0  0  0  0  0  0  0  0  0  0
   -7.4949    2.7499  -24.1243 N   0  0  0  0  0  0  0  0  0  0  0  0
   -6.9764    1.6479  -24.7139 C   0  0  0  0  0  0  0  0  0  0  0  0
   -5.8060    1.3009  -24.6240 O   0  0  0  0  0  0  0  0  0  0  0  0
   -7.9842    0.8098  -25.5170 C   0  0  0  0  0  0  0  0  0  0  0  0
   -8.8743    0.0773  -24.6337 N   0  0  0  0  0  0  0  0  0  0  0  0
   -8.5209   -1.2802  -24.2656 C   0  0  0  0  0  0  0  0  0  0  0  0
   -8.9447   -1.6070  -22.8057 C   0  0  2  0  0  0  0  0  0  0  0  0
   -8.1604   -0.6899  -21.8435 C   0  0  0  0  0  0  0  0  0  0  0  0
   -8.2833    0.5151  -21.7111 O   0  0  0  0  0  0  0  0  0  0  0  0
   -7.2754   -1.4533  -21.1226 N   0  0  0  0  0  0  0  0  0  0  0  0
   -6.4848   -0.8765  -20.0968 C   0  0  0  0  0  0  0  0  0  0  0  0
   -6.7856   -1.1032  -18.7777 C   0  0  0  0  0  0  0  0  0  0  0  0
   -6.1039   -0.5636  -17.7390 N   0  0  0  0  0  0  0  0  0  0  0  0
   -5.0892    0.2169  -18.0192 C   0  0  0  0  0  0  0  0  0  0  0  0
   -4.6604    0.5244  -19.3406 C   0  0  0  0  0  0  0  0  0  0  0  0
   -3.5480    1.3681  -19.6033 C   0  0  0  0  0  0  0  0  0  0  0  0
   -3.1913    1.6726  -20.8876 C   0  0  0  0  0  0  0  0  0  0  0  0
   -3.9304    1.1519  -21.9722 C   0  0  0  0  0  0  0  0  0  0  0  0
   -4.9994    0.3233  -21.7451 C   0  0  0  0  0  0  0  0  0  0  0  0
   -5.3891   -0.0200  -20.4214 C   0  0  0  0  0  0  0  0  0  0  0  0
   -5.5759   -0.0413  -22.5886 H   0  0  0  0  0  0  0  0  0  0  0  0
   -3.6887    1.4221  -22.9953 H   0  0  0  0  0  0  0  0  0  0  0  0
   -2.3524    2.3353  -21.0791 H   0  0  0  0  0  0  0  0  0  0  0  0
   -3.0052    1.7835  -18.7603 H   0  0  0  0  0  0  0  0  0  0  0  0
   -4.5566    0.6540  -17.1755 H   0  0  0  0  0  0  0  0  0  0  0  0
   -7.6357   -1.7339  -18.5136 H   0  0  0  0  0  0  0  0  0  0  0  0
   -7.2235   -2.8475  -21.5081 C   0  0  0  0  0  0  0  0  0  0  0  0
   -8.4957   -3.0226  -22.3693 C   0  0  2  0  0  0  0  0  0  0  0  0
   -8.3266   -4.0372  -23.4941 C   0  0  0  0  0  0  0  0  0  0  0  0
   -8.0503   -5.2838  -22.9024 O   0  0  0  0  0  0  0  0  0  0  0  0
   -7.5296   -6.2474  -23.8013 C   0  0  0  0  0  0  0  0  0  0  0  0
   -8.0717   -7.5941  -23.3695 C   0  0  0  0  0  0  0  0  0  0  0  0
   -9.1588   -7.5892  -23.3915 H   0  0  0  0  0  0  0  0  0  0  0  0
   -7.7433   -7.8314  -22.3530 H   0  0  0  0  0  0  0  0  0  0  0  0
   -7.7269   -8.3612  -24.0599 H   0  0  0  0  0  0  0  0  0  0  0  0
   -6.0080   -6.2113  -23.7770 C   0  0  0  0  0  0  0  0  0  0  0  0
   -5.5995   -6.9566  -24.4670 H   0  0  0  0  0  0  0  0  0  0  0  0
   -5.6630   -6.4428  -22.7652 H   0  0  0  0  0  0  0  0  0  0  0  0
   -5.6158   -5.2268  -24.0562 H   0  0  0  0  0  0  0  0  0  0  0  0
   -7.8932   -6.0290  -24.8187 H   0  0  0  0  0  0  0  0  0  0  0  0
   -7.5101   -3.7347  -24.1730 H   0  0  0  0  0  0  0  0  0  0  0  0
   -9.2418   -4.1049  -24.1080 H   0  0  0  0  0  0  0  0  0  0  0  0
   -9.2571   -3.4280  -21.7050 H   0  0  0  0  0  0  0  0  0  0  0  0
   -6.2971   -3.0866  -22.0560 H   0  0  0  0  0  0  0  0  0  0  0  0
   -7.2431   -3.4791  -20.6169 H   0  0  0  0  0  0  0  0  0  0  0  0
  -10.4329   -1.3061  -22.6859 C   0  0  0  0  0  0  0  0  0  0  0  0
  -11.3524   -2.1019  -21.9835 C   0  0  0  0  0  0  0  0  0  0  0  0
  -12.6864   -1.7240  -21.9411 C   0  0  0  0  0  0  0  0  0  0  0  0
  -13.8375   -2.7458  -21.1255 Cl  0  0  0  0  0  0  0  0  0  0  0  0
  -13.1329   -0.5359  -22.5119 C   0  0  0  0  0  0  0  0  0  0  0  0
  -12.2236    0.2818  -23.1485 C   0  0  0  0  0  0  0  0  0  0  0  0
  -10.8983   -0.1307  -23.2987 C   0  0  0  0  0  0  0  0  0  0  0  0
   -9.9948    0.6940  -24.1765 C   0  0  0  0  0  0  0  0  0  0  0  0
  -10.2571    1.8633  -24.4668 O   0  0  0  0  0  0  0  0  0  0  0  0
  -12.5406    1.2378  -23.5475 H   0  0  0  0  0  0  0  0  0  0  0  0
  -14.1845   -0.2749  -22.4705 H   0  0  0  0  0  0  0  0  0  0  0  0
  -11.0672   -3.0234  -21.4858 H   0  0  0  0  0  0  0  0  0  0  0  0
   -7.4297   -1.3654  -24.3569 H   0  0  0  0  0  0  0  0  0  0  0  0
   -9.0242   -1.9735  -24.9555 H   0  0  0  0  0  0  0  0  0  0  0  0
   -7.4109    0.0928  -26.1112 H   0  0  0  0  0  0  0  0  0  0  0  0
   -8.5991    1.4323  -26.1749 H   0  0  0  0  0  0  0  0  0  0  0  0
   -8.4966    2.8741  -24.2140 H   0  0  0  0  0  0  0  0  0  0  0  0
   -6.4831    2.7565  -22.2683 H   0  0  0  0  0  0  0  0  0  0  0  0
   -7.5042    4.1729  -22.6182 H   0  0  0  0  0  0  0  0  0  0  0  0
   -5.9396    4.0053  -23.4319 H   0  0  0  0  0  0  0  0  0  0  0  0
  1  2  1  0
  2  3  1  0
  3  4  2  0
  3  5  1  0
  5  6  1  0
  6  7  1  0
  8  7  1  6
  8  9  1  0
  9 10  2  0
  9 11  1  0
 11 12  1  0
 12 13  2  0
 13 14  1  0
 14 15  2  0
 15 16  1  0
 16 17  2  0
 17 18  1  0
 18 19  2  0
 19 20  1  0
 20 21  2  0
 20 22  1  0
 19 23  1  0
 18 24  1  0
 17 25  1  0
 15 26  1  0
 13 27  1  0
 11 28  1  0
 28 29  1  0
 29 30  1  0
 30 31  1  0
 31 32  1  0
 32 33  1  0
 33 34  1  0
 33 35  1  0
 33 36  1  0
 32 37  1  0
 37 38  1  0
 37 39  1  0
 37 40  1  0
 32 41  1  0
 30 42  1  0
 30 43  1  0
 29 44  1  1
 28 45  1  0
 28 46  1  0
  8 47  1  0
 47 48  2  0
 48 49  1  0
 49 50  1  0
 49 51  2  0
 51 52  1  0
 52 53  2  0
 53 54  1  0
 54 55  2  0
 52 56  1  0
 51 57  1  0
 48 58  1  0
  7 59  1  0
  7 60  1  0
  5 61  1  0
  5 62  1  0
  2 63  1  0
  1 64  1  0
  1 65  1  0
  1 66  1  0
 54  6  1  0
 29  8  1  0
 53 47  1  0
 21 12  1  0
 21 16  1  0
M  END
>  <cnnaffinities>  (93) 
[6.92537]

>  <score>  (93) 
6.92537

>  <index>  (93) 
96

>  <Smiles>  (93) 
C(N(C(=O)C(N1C([C@@]2(C(=O)N(c3c(nc(c4c(c(c(c(c34)[H])[H])[H])[H])[H])[H])C([C@@]2(C(OC(C([H])([H])[H])(C([H])([H])[H])[H])([H])[H])[H])([H])[H])c2c(c(Cl)c(c(c2C1=O)[H])[H])[H])([H])[H])([H])[H])[H])([H])([H])[H]

>  <h>  (93) 
<NA>

>  <Training>  (93) 
True

>  <Success>  (93) 
True

>  <enamine_searched>  (93) 
False

>  <enamine_id>  (93) 
nan

$$$$

     RDKit          3D

 40 43  0  0  0  0  0  0  0  0999 V2000
  -12.6628   -3.7940  -21.1348 C   0  0  0  0  0  0  0  0  0  0  0  0
  -11.6030   -2.7953  -21.6197 C   0  0  2  0  0  0  0  0  0  0  0  0
  -12.0460   -2.2882  -22.9811 C   0  0  0  0  0  0  0  0  0  0  0  0
  -11.1521   -1.3423  -23.5049 O   0  0  0  0  0  0  0  0  0  0  0  0
   -9.8757   -1.8759  -23.7389 C   0  0  0  0  0  0  0  0  0  0  0  0
   -9.2063   -2.3687  -22.4505 C   0  0  1  0  0  0  0  0  0  0  0  0
  -10.1752   -3.3380  -21.7345 C   0  0  0  0  0  0  0  0  0  0  0  0
  -10.1943   -4.2675  -22.3196 H   0  0  0  0  0  0  0  0  0  0  0  0
   -9.7496   -3.5950  -20.7589 H   0  0  0  0  0  0  0  0  0  0  0  0
   -7.9479   -3.0095  -22.7597 N   0  0  0  0  0  0  0  0  0  0  0  0
   -6.8884   -2.5832  -22.0164 C   0  0  0  0  0  0  0  0  0  0  0  0
   -5.7510   -3.0009  -22.0102 O   0  0  0  0  0  0  0  0  0  0  0  0
   -7.3791   -1.5118  -21.2457 N   0  0  0  0  0  0  0  0  0  0  0  0
   -6.6128   -0.8815  -20.2249 C   0  0  0  0  0  0  0  0  0  0  0  0
   -6.9435   -1.0719  -18.9048 C   0  0  0  0  0  0  0  0  0  0  0  0
   -6.2552   -0.5652  -17.8535 N   0  0  0  0  0  0  0  0  0  0  0  0
   -5.2111    0.1747  -18.1279 C   0  0  0  0  0  0  0  0  0  0  0  0
   -4.7632    0.4660  -19.4442 C   0  0  0  0  0  0  0  0  0  0  0  0
   -3.6414    1.3055  -19.6522 C   0  0  0  0  0  0  0  0  0  0  0  0
   -3.2593    1.6325  -20.9231 C   0  0  0  0  0  0  0  0  0  0  0  0
   -3.9831    1.1357  -22.0278 C   0  0  0  0  0  0  0  0  0  0  0  0
   -5.0644    0.3075  -21.8523 C   0  0  0  0  0  0  0  0  0  0  0  0
   -5.4825   -0.0575  -20.5401 C   0  0  0  0  0  0  0  0  0  0  0  0
   -5.6115   -0.0561  -22.7162 H   0  0  0  0  0  0  0  0  0  0  0  0
   -3.6858    1.4302  -23.0287 H   0  0  0  0  0  0  0  0  0  0  0  0
   -2.4169    2.2963  -21.0806 H   0  0  0  0  0  0  0  0  0  0  0  0
   -3.1325    1.7026  -18.7787 H   0  0  0  0  0  0  0  0  0  0  0  0
   -4.6634    0.5937  -17.2861 H   0  0  0  0  0  0  0  0  0  0  0  0
   -7.8044   -1.6833  -18.6522 H   0  0  0  0  0  0  0  0  0  0  0  0
   -8.7198   -1.2358  -21.5322 C   0  0  0  0  0  0  0  0  0  0  0  0
   -9.3337   -0.2783  -21.1190 O   0  0  0  0  0  0  0  0  0  0  0  0
   -7.8961   -3.8558  -23.2994 H   0  0  0  0  0  0  0  0  0  0  0  0
   -9.2838   -1.0846  -24.2075 H   0  0  0  0  0  0  0  0  0  0  0  0
   -9.9238   -2.7370  -24.4295 H   0  0  0  0  0  0  0  0  0  0  0  0
  -13.0252   -1.7959  -22.9106 H   0  0  0  0  0  0  0  0  0  0  0  0
  -12.1403   -3.1637  -23.6491 H   0  0  0  0  0  0  0  0  0  0  0  0
  -11.5864   -1.9487  -20.9374 H   0  0  0  0  0  0  0  0  0  0  0  0
  -12.3850   -4.3635  -20.2367 H   0  0  0  0  0  0  0  0  0  0  0  0
  -12.8889   -4.5125  -21.9368 H   0  0  0  0  0  0  0  0  0  0  0  0
  -13.5936   -3.2541  -20.8975 H   0  0  0  0  0  0  0  0  0  0  0  0
  1  2  1  0
  2  3  1  0
  3  4  1  0
  4  5  1  0
  5  6  1  0
  6  7  1  0
  7  8  1  0
  7  9  1  0
  6 10  1  6
 10 11  1  0
 11 12  2  0
 11 13  1  0
 13 14  1  0
 14 15  2  0
 15 16  1  0
 16 17  2  0
 17 18  1  0
 18 19  2  0
 19 20  1  0
 20 21  2  0
 21 22  1  0
 22 23  2  0
 22 24  1  0
 21 25  1  0
 20 26  1  0
 19 27  1  0
 17 28  1  0
 15 29  1  0
 13 30  1  0
 30 31  2  0
 10 32  1  0
  5 33  1  0
  5 34  1  0
  3 35  1  0
  3 36  1  0
  2 37  1  1
  1 38  1  0
  1 39  1  0
  1 40  1  0
  7  2  1  0
 23 14  1  0
 30  6  1  0
 23 18  1  0
M  END
>  <cnnaffinities>  (94) 
[5.55426]

>  <score>  (94) 
5.55426

>  <index>  (94) 
97

>  <Smiles>  (94) 
C([C@@]1(C(OC([C@@]2(C1([H])[H])N(C(=O)N(c1c(nc(c3c(c(c(c(c13)[H])[H])[H])[H])[H])[H])C2=O)[H])([H])[H])([H])[H])[H])([H])([H])[H]

>  <h>  (94) 
<NA>

>  <Training>  (94) 
True

>  <Success>  (94) 
True

>  <enamine_searched>  (94) 
False

>  <enamine_id>  (94) 
nan

$$$$
