
     RDKit          3D

 66 71  0  0  0  0  0  0  0  0999 V2000
   -7.3579    3.4091  -21.8247 C   0  0  0  0  0  0  0  0  0  0  0  0
   -8.2060    2.9422  -22.9045 N   0  0  0  0  0  0  0  0  0  0  0  0
   -7.6386    2.2511  -23.9146 C   0  0  0  0  0  0  0  0  0  0  0  0
   -6.4243    2.1317  -24.0230 O   0  0  0  0  0  0  0  0  0  0  0  0
   -8.5938    1.6314  -24.9441 C   0  0  0  0  0  0  0  0  0  0  0  0
   -9.3268    0.4828  -24.4436 N   0  0  0  0  0  0  0  0  0  0  0  0
   -8.6140   -0.7718  -24.2732 C   0  0  0  0  0  0  0  0  0  0  0  0
   -9.0221   -1.4968  -22.9658 C   0  0  2  0  0  0  0  0  0  0  0  0
   -8.4794   -0.7091  -21.7394 C   0  0  0  0  0  0  0  0  0  0  0  0
   -8.8975    0.3393  -21.2941 O   0  0  0  0  0  0  0  0  0  0  0  0
   -7.4093   -1.3917  -21.2120 N   0  0  0  0  0  0  0  0  0  0  0  0
   -6.6091   -0.8150  -20.1830 C   0  0  0  0  0  0  0  0  0  0  0  0
   -6.9117   -1.0426  -18.8652 C   0  0  0  0  0  0  0  0  0  0  0  0
   -6.2096   -0.5475  -17.8141 N   0  0  0  0  0  0  0  0  0  0  0  0
   -5.1709    0.2075  -18.0786 C   0  0  0  0  0  0  0  0  0  0  0  0
   -4.7317    0.5256  -19.3954 C   0  0  0  0  0  0  0  0  0  0  0  0
   -3.6026    1.3580  -19.6406 C   0  0  0  0  0  0  0  0  0  0  0  0
   -3.2149    1.6488  -20.9193 C   0  0  0  0  0  0  0  0  0  0  0  0
   -3.9364    1.1204  -22.0131 C   0  0  0  0  0  0  0  0  0  0  0  0
   -5.0308    0.3160  -21.8017 C   0  0  0  0  0  0  0  0  0  0  0  0
   -5.4677   -0.0014  -20.4867 C   0  0  0  0  0  0  0  0  0  0  0  0
   -5.5874   -0.0713  -22.6498 H   0  0  0  0  0  0  0  0  0  0  0  0
   -3.6445    1.3663  -23.0285 H   0  0  0  0  0  0  0  0  0  0  0  0
   -2.3633    2.3010  -21.0983 H   0  0  0  0  0  0  0  0  0  0  0  0
   -3.0749    1.7748  -18.7858 H   0  0  0  0  0  0  0  0  0  0  0  0
   -4.6201    0.6120  -17.2273 H   0  0  0  0  0  0  0  0  0  0  0  0
   -7.7627   -1.6660  -18.6022 H   0  0  0  0  0  0  0  0  0  0  0  0
   -7.0761   -2.6105  -21.9239 C   0  0  0  0  0  0  0  0  0  0  0  0
   -8.3052   -2.8808  -22.8181 C   0  0  2  0  0  0  0  0  0  0  0  0
   -7.9100   -3.6484  -24.0988 C   0  0  0  0  0  0  0  0  0  0  0  0
   -9.0601   -3.9972  -24.9196 N   0  0  0  0  0  0  0  0  0  0  0  0
   -8.9594   -4.6206  -26.1264 C   0  0  0  0  0  0  0  0  0  0  0  0
  -10.1200   -4.9263  -26.8788 C   0  0  0  0  0  0  0  0  0  0  0  0
   -9.9292   -5.5448  -28.0935 C   0  0  0  0  0  0  0  0  0  0  0  0
   -8.7128   -5.8494  -28.5829 N   0  0  0  0  0  0  0  0  0  0  0  0
   -7.7011   -5.5283  -27.7896 C   0  0  0  0  0  0  0  0  0  0  0  0
   -7.7393   -4.9263  -26.5933 N   0  0  0  0  0  0  0  0  0  0  0  0
   -6.7014   -5.7822  -28.1646 H   0  0  0  0  0  0  0  0  0  0  0  0
  -10.7761   -5.8169  -28.7305 H   0  0  0  0  0  0  0  0  0  0  0  0
  -11.1224   -4.6965  -26.5200 H   0  0  0  0  0  0  0  0  0  0  0  0
   -9.9897   -3.8007  -24.5813 H   0  0  0  0  0  0  0  0  0  0  0  0
   -7.3656   -4.5683  -23.8370 H   0  0  0  0  0  0  0  0  0  0  0  0
   -7.2098   -3.0560  -24.7076 H   0  0  0  0  0  0  0  0  0  0  0  0
   -8.9968   -3.5188  -22.2597 H   0  0  0  0  0  0  0  0  0  0  0  0
   -6.8873   -3.4258  -21.2176 H   0  0  0  0  0  0  0  0  0  0  0  0
   -6.1652   -2.4851  -22.5296 H   0  0  0  0  0  0  0  0  0  0  0  0
  -10.5414   -1.5246  -22.8911 C   0  0  0  0  0  0  0  0  0  0  0  0
  -11.1862   -2.3790  -21.9866 C   0  0  0  0  0  0  0  0  0  0  0  0
  -12.5664   -2.3851  -21.9026 C   0  0  0  0  0  0  0  0  0  0  0  0
  -13.3604   -3.4503  -20.7807 Cl  0  0  0  0  0  0  0  0  0  0  0  0
  -13.3467   -1.5393  -22.6892 C   0  0  0  0  0  0  0  0  0  0  0  0
  -12.7147   -0.6391  -23.5244 C   0  0  0  0  0  0  0  0  0  0  0  0
  -11.3223   -0.5992  -23.6003 C   0  0  0  0  0  0  0  0  0  0  0  0
  -10.6925    0.5262  -24.3720 C   0  0  0  0  0  0  0  0  0  0  0  0
  -11.3590    1.4253  -24.8615 O   0  0  0  0  0  0  0  0  0  0  0  0
  -13.2732    0.0864  -24.1063 H   0  0  0  0  0  0  0  0  0  0  0  0
  -14.4267   -1.5686  -22.6012 H   0  0  0  0  0  0  0  0  0  0  0  0
  -10.6228   -3.0117  -21.3105 H   0  0  0  0  0  0  0  0  0  0  0  0
   -8.7963   -1.4437  -25.1264 H   0  0  0  0  0  0  0  0  0  0  0  0
   -7.5481   -0.5351  -24.2322 H   0  0  0  0  0  0  0  0  0  0  0  0
   -7.9592    1.3521  -25.7920 H   0  0  0  0  0  0  0  0  0  0  0  0
   -9.3541    2.3414  -25.2817 H   0  0  0  0  0  0  0  0  0  0  0  0
   -9.2044    2.8877  -22.7659 H   0  0  0  0  0  0  0  0  0  0  0  0
   -7.9883    3.8573  -21.0584 H   0  0  0  0  0  0  0  0  0  0  0  0
   -6.6558    4.1697  -22.1817 H   0  0  0  0  0  0  0  0  0  0  0  0
   -6.7715    2.5730  -21.4141 H   0  0  0  0  0  0  0  0  0  0  0  0
  1  2  1  0
  2  3  1  0
  3  4  2  0
  3  5  1  0
  5  6  1  0
  6  7  1  0
  8  7  1  6
  8  9  1  0
  9 10  2  0
  9 11  1  0
 11 12  1  0
 12 13  2  0
 13 14  1  0
 14 15  2  0
 15 16  1  0
 16 17  2  0
 17 18  1  0
 18 19  2  0
 19 20  1  0
 20 21  2  0
 20 22  1  0
 19 23  1  0
 18 24  1  0
 17 25  1  0
 15 26  1  0
 13 27  1  0
 11 28  1  0
 28 29  1  0
 29 30  1  0
 30 31  1  0
 31 32  1  0
 32 33  2  0
 33 34  1  0
 34 35  2  0
 35 36  1  0
 36 37  2  0
 36 38  1  0
 34 39  1  0
 33 40  1  0
 31 41  1  0
 30 42  1  0
 30 43  1  0
 29 44  1  1
 28 45  1  0
 28 46  1  0
  8 47  1  0
 47 48  2  0
 48 49  1  0
 49 50  1  0
 49 51  2  0
 51 52  1  0
 52 53  2  0
 53 54  1  0
 54 55  2  0
 52 56  1  0
 51 57  1  0
 48 58  1  0
  7 59  1  0
  7 60  1  0
  5 61  1  0
  5 62  1  0
  2 63  1  0
  1 64  1  0
  1 65  1  0
  1 66  1  0
 54  6  1  0
 29  8  1  0
 37 32  1  0
 53 47  1  0
 21 12  1  0
 21 16  1  0
M  END
>  <cnnaffinities>  (1) 
[6.26912]

>  <score>  (1) 
6.26912

>  <index>  (1) 
0

>  <Smiles>  (1) 
C(N(C(=O)C(N1C([C@@]2(C(=O)N(c3c(nc(c4c(c(c(c(c34)[H])[H])[H])[H])[H])[H])C([C@@]2(C(N(c2c(c(nc(n2)[H])[H])[H])[H])([H])[H])[H])([H])[H])c2c(c(Cl)c(c(c2C1=O)[H])[H])[H])([H])[H])([H])[H])[H])([H])([H])[H]

>  <h>  (1) 
<NA>

>  <Training>  (1) 
True

>  <Success>  (1) 
True

>  <enamine_searched>  (1) 
False

>  <enamine_id>  (1) 
nan

$$$$

     RDKit          3D

 68 73  0  0  0  0  0  0  0  0999 V2000
   -7.2501    3.4813  -21.9503 C   0  0  0  0  0  0  0  0  0  0  0  0
   -8.2242    2.8935  -22.8456 N   0  0  0  0  0  0  0  0  0  0  0  0
   -7.8332    2.2292  -23.9583 C   0  0  0  0  0  0  0  0  0  0  0  0
   -6.6584    2.0648  -24.2538 O   0  0  0  0  0  0  0  0  0  0  0  0
   -8.9647    1.6821  -24.8282 C   0  0  0  0  0  0  0  0  0  0  0  0
   -9.5780    0.4990  -24.2490 N   0  0  0  0  0  0  0  0  0  0  0  0
   -8.7389   -0.6682  -24.0415 C   0  0  0  0  0  0  0  0  0  0  0  0
   -9.1109   -1.4551  -22.7517 C   0  0  2  0  0  0  0  0  0  0  0  0
   -8.6356   -0.6430  -21.5175 C   0  0  0  0  0  0  0  0  0  0  0  0
   -9.1586    0.3439  -21.0528 O   0  0  0  0  0  0  0  0  0  0  0  0
   -7.4704   -1.2180  -21.0551 N   0  0  0  0  0  0  0  0  0  0  0  0
   -6.6652   -0.6522  -20.0422 C   0  0  0  0  0  0  0  0  0  0  0  0
   -6.9391   -0.9153  -18.7258 C   0  0  0  0  0  0  0  0  0  0  0  0
   -6.1860   -0.4683  -17.6921 N   0  0  0  0  0  0  0  0  0  0  0  0
   -5.1285    0.2527  -17.9867 C   0  0  0  0  0  0  0  0  0  0  0  0
   -4.7179    0.5792  -19.3133 C   0  0  0  0  0  0  0  0  0  0  0  0
   -3.5717    1.3705  -19.5943 C   0  0  0  0  0  0  0  0  0  0  0  0
   -3.2207    1.6593  -20.8858 C   0  0  0  0  0  0  0  0  0  0  0  0
   -3.9936    1.1723  -21.9626 C   0  0  0  0  0  0  0  0  0  0  0  0
   -5.1098    0.4110  -21.7186 C   0  0  0  0  0  0  0  0  0  0  0  0
   -5.5020    0.1015  -20.3849 C   0  0  0  0  0  0  0  0  0  0  0  0
   -5.7117    0.0637  -22.5529 H   0  0  0  0  0  0  0  0  0  0  0  0
   -3.7263    1.4133  -22.9868 H   0  0  0  0  0  0  0  0  0  0  0  0
   -2.3573    2.2839  -21.0902 H   0  0  0  0  0  0  0  0  0  0  0  0
   -2.9989    1.7593  -18.7592 H   0  0  0  0  0  0  0  0  0  0  0  0
   -4.5312    0.6141  -17.1509 H   0  0  0  0  0  0  0  0  0  0  0  0
   -7.8040   -1.5271  -18.4722 H   0  0  0  0  0  0  0  0  0  0  0  0
   -7.0121   -2.3567  -21.8144 C   0  0  0  0  0  0  0  0  0  0  0  0
   -8.2598   -2.7592  -22.6032 C   0  0  2  0  0  0  0  0  0  0  0  0
   -7.8900   -3.4830  -23.8827 C   0  0  0  0  0  0  0  0  0  0  0  0
   -9.0743   -3.9644  -24.5325 N   0  0  0  0  0  0  0  0  0  0  0  0
   -8.9555   -4.4958  -25.7994 C   0  0  0  0  0  0  0  0  0  0  0  0
   -7.7518   -4.7801  -26.5003 C   0  0  0  0  0  0  0  0  0  0  0  0
   -7.9934   -5.3351  -27.6816 N   0  0  0  0  0  0  0  0  0  0  0  0
   -9.3195   -5.4083  -27.7536 N   0  0  0  0  0  0  0  0  0  0  0  0
   -9.9742   -5.9841  -28.8946 C   0  0  0  0  0  0  0  0  0  0  0  0
  -10.7231   -5.2651  -29.2322 H   0  0  0  0  0  0  0  0  0  0  0  0
  -10.4667   -6.9306  -28.6360 H   0  0  0  0  0  0  0  0  0  0  0  0
   -9.2183   -6.1546  -29.6649 H   0  0  0  0  0  0  0  0  0  0  0  0
   -9.9542   -4.9367  -26.6506 C   0  0  0  0  0  0  0  0  0  0  0  0
  -11.0397   -4.9935  -26.5834 H   0  0  0  0  0  0  0  0  0  0  0  0
   -6.7235   -4.6282  -26.1934 H   0  0  0  0  0  0  0  0  0  0  0  0
   -9.9630   -3.5445  -24.2748 H   0  0  0  0  0  0  0  0  0  0  0  0
   -7.2994   -2.8089  -24.5356 H   0  0  0  0  0  0  0  0  0  0  0  0
   -7.2422   -4.3418  -23.6632 H   0  0  0  0  0  0  0  0  0  0  0  0
   -8.8378   -3.4450  -21.9759 H   0  0  0  0  0  0  0  0  0  0  0  0
   -6.1643   -2.1010  -22.4729 H   0  0  0  0  0  0  0  0  0  0  0  0
   -6.6551   -3.1390  -21.1351 H   0  0  0  0  0  0  0  0  0  0  0  0
  -10.6226   -1.6381  -22.7148 C   0  0  0  0  0  0  0  0  0  0  0  0
  -11.2251   -2.5820  -21.8678 C   0  0  0  0  0  0  0  0  0  0  0  0
  -12.6063   -2.6323  -21.7471 C   0  0  0  0  0  0  0  0  0  0  0  0
  -13.3598   -3.7060  -20.6087 Cl  0  0  0  0  0  0  0  0  0  0  0  0
  -13.4449   -1.8078  -22.4928 C   0  0  0  0  0  0  0  0  0  0  0  0
  -12.8606   -0.8828  -23.3327 C   0  0  0  0  0  0  0  0  0  0  0  0
  -11.4722   -0.7555  -23.4033 C   0  0  0  0  0  0  0  0  0  0  0  0
  -10.9394    0.4307  -24.1530 C   0  0  0  0  0  0  0  0  0  0  0  0
  -11.6823    1.2904  -24.6095 O   0  0  0  0  0  0  0  0  0  0  0  0
  -13.4670   -0.2036  -23.9207 H   0  0  0  0  0  0  0  0  0  0  0  0
  -14.5227   -1.8820  -22.3705 H   0  0  0  0  0  0  0  0  0  0  0  0
  -10.6295   -3.2676  -21.2760 H   0  0  0  0  0  0  0  0  0  0  0  0
   -7.7119   -0.3028  -23.9655 H   0  0  0  0  0  0  0  0  0  0  0  0
   -8.8009   -1.3236  -24.9218 H   0  0  0  0  0  0  0  0  0  0  0  0
   -9.7630    2.4208  -24.9237 H   0  0  0  0  0  0  0  0  0  0  0  0
   -8.5432    1.4868  -25.8229 H   0  0  0  0  0  0  0  0  0  0  0  0
   -9.1719    2.7881  -22.5280 H   0  0  0  0  0  0  0  0  0  0  0  0
   -6.5706    4.1152  -22.5262 H   0  0  0  0  0  0  0  0  0  0  0  0
   -7.7759    4.0878  -21.2107 H   0  0  0  0  0  0  0  0  0  0  0  0
   -6.6575    2.7103  -21.4392 H   0  0  0  0  0  0  0  0  0  0  0  0
  1  2  1  0
  2  3  1  0
  3  4  2  0
  3  5  1  0
  5  6  1  0
  6  7  1  0
  8  7  1  6
  8  9  1  0
  9 10  2  0
  9 11  1  0
 11 12  1  0
 12 13  2  0
 13 14  1  0
 14 15  2  0
 15 16  1  0
 16 17  2  0
 17 18  1  0
 18 19  2  0
 19 20  1  0
 20 21  2  0
 20 22  1  0
 19 23  1  0
 18 24  1  0
 17 25  1  0
 15 26  1  0
 13 27  1  0
 11 28  1  0
 28 29  1  0
 29 30  1  0
 30 31  1  0
 31 32  1  0
 32 33  1  0
 33 34  2  0
 34 35  1  0
 35 36  1  0
 36 37  1  0
 36 38  1  0
 36 39  1  0
 35 40  1  0
 40 41  1  0
 33 42  1  0
 31 43  1  0
 30 44  1  0
 30 45  1  0
 29 46  1  1
 28 47  1  0
 28 48  1  0
  8 49  1  0
 49 50  2  0
 50 51  1  0
 51 52  1  0
 51 53  2  0
 53 54  1  0
 54 55  2  0
 55 56  1  0
 56 57  2  0
 54 58  1  0
 53 59  1  0
 50 60  1  0
  7 61  1  0
  7 62  1  0
  5 63  1  0
  5 64  1  0
  2 65  1  0
  1 66  1  0
  1 67  1  0
  1 68  1  0
 56  6  1  0
 29  8  1  0
 40 32  2  0
 55 49  1  0
 21 12  1  0
 21 16  1  0
M  END
>  <cnnaffinities>  (2) 
[6.57643]

>  <score>  (2) 
6.57643

>  <index>  (2) 
1

>  <Smiles>  (2) 
C(N(C(=O)C(N1C([C@@]2(C(=O)N(c3c(nc(c4c(c(c(c(c34)[H])[H])[H])[H])[H])[H])C([C@@]2(C(N(c2c(nn(C([H])([H])[H])c2[H])[H])[H])([H])[H])[H])([H])[H])c2c(c(Cl)c(c(c2C1=O)[H])[H])[H])([H])[H])([H])[H])[H])([H])([H])[H]

>  <h>  (2) 
<NA>

>  <Training>  (2) 
True

>  <Success>  (2) 
True

>  <enamine_searched>  (2) 
False

>  <enamine_id>  (2) 
nan

$$$$

     RDKit          3D

 60 65  0  0  0  0  0  0  0  0999 V2000
   -9.3264    0.2137  -31.1117 C   0  0  0  0  0  0  0  0  0  0  0  0
   -8.9077    0.5944  -29.7141 C   0  0  0  0  0  0  0  0  0  0  0  0
   -9.3545    1.7687  -29.0936 C   0  0  0  0  0  0  0  0  0  0  0  0
   -9.2288    1.9617  -27.7850 N   0  0  0  0  0  0  0  0  0  0  0  0
   -8.5997    1.0170  -27.0741 C   0  0  0  0  0  0  0  0  0  0  0  0
   -8.5604    1.1801  -25.5709 C   0  0  0  0  0  0  0  0  0  0  0  0
   -9.3138    0.1703  -24.8351 N   0  0  0  0  0  0  0  0  0  0  0  0
   -8.7032   -1.1115  -24.5153 C   0  0  0  0  0  0  0  0  0  0  0  0
   -8.9022   -1.5194  -23.0260 C   0  0  2  0  0  0  0  0  0  0  0  0
   -8.1103   -0.6007  -22.0838 C   0  0  0  0  0  0  0  0  0  0  0  0
   -8.1136    0.6130  -22.0979 O   0  0  0  0  0  0  0  0  0  0  0  0
   -7.3818   -1.3746  -21.2073 N   0  0  0  0  0  0  0  0  0  0  0  0
   -6.5859   -0.8226  -20.1819 C   0  0  0  0  0  0  0  0  0  0  0  0
   -6.8885   -1.0694  -18.8662 C   0  0  0  0  0  0  0  0  0  0  0  0
   -6.2115   -0.5583  -17.8080 N   0  0  0  0  0  0  0  0  0  0  0  0
   -5.1804    0.2078  -18.0757 C   0  0  0  0  0  0  0  0  0  0  0  0
   -4.7354    0.5111  -19.3938 C   0  0  0  0  0  0  0  0  0  0  0  0
   -3.6064    1.3405  -19.6208 C   0  0  0  0  0  0  0  0  0  0  0  0
   -3.1877    1.6120  -20.8932 C   0  0  0  0  0  0  0  0  0  0  0  0
   -3.8693    1.0605  -21.9994 C   0  0  0  0  0  0  0  0  0  0  0  0
   -4.9625    0.2544  -21.8080 C   0  0  0  0  0  0  0  0  0  0  0  0
   -5.4400   -0.0232  -20.4933 C   0  0  0  0  0  0  0  0  0  0  0  0
   -5.4777   -0.1569  -22.6693 H   0  0  0  0  0  0  0  0  0  0  0  0
   -3.5270    1.2837  -23.0060 H   0  0  0  0  0  0  0  0  0  0  0  0
   -2.3294    2.2554  -21.0622 H   0  0  0  0  0  0  0  0  0  0  0  0
   -3.0965    1.7636  -18.7602 H   0  0  0  0  0  0  0  0  0  0  0  0
   -4.6287    0.6261  -17.2320 H   0  0  0  0  0  0  0  0  0  0  0  0
   -7.7507   -1.6884  -18.6211 H   0  0  0  0  0  0  0  0  0  0  0  0
   -7.6401   -2.7926  -21.3146 C   0  0  0  0  0  0  0  0  0  0  0  0
   -8.3579   -2.9459  -22.6750 C   0  0  2  0  0  0  0  0  0  0  0  0
   -7.4948   -3.6132  -23.7430 C   0  0  0  0  0  0  0  0  0  0  0  0
   -7.1984   -4.6136  -23.4106 H   0  0  0  0  0  0  0  0  0  0  0  0
   -6.5915   -3.0413  -23.9766 H   0  0  0  0  0  0  0  0  0  0  0  0
   -8.0772   -3.7412  -24.6603 H   0  0  0  0  0  0  0  0  0  0  0  0
   -9.2042   -3.6261  -22.5517 H   0  0  0  0  0  0  0  0  0  0  0  0
   -8.2755   -3.1449  -20.4891 H   0  0  0  0  0  0  0  0  0  0  0  0
   -6.6964   -3.3465  -21.2536 H   0  0  0  0  0  0  0  0  0  0  0  0
  -10.3919   -1.3978  -22.7379 C   0  0  0  0  0  0  0  0  0  0  0  0
  -10.9910   -2.1975  -21.7607 C   0  0  0  0  0  0  0  0  0  0  0  0
  -12.3676   -2.2457  -21.6593 C   0  0  0  0  0  0  0  0  0  0  0  0
  -12.9181   -3.1442  -20.8261 F   0  0  0  0  0  0  0  0  0  0  0  0
  -13.1901   -1.4283  -22.4191 C   0  0  0  0  0  0  0  0  0  0  0  0
  -12.5846   -0.5533  -23.3055 C   0  0  0  0  0  0  0  0  0  0  0  0
  -11.1999   -0.5312  -23.4761 C   0  0  0  0  0  0  0  0  0  0  0  0
  -10.5945    0.4503  -24.4385 C   0  0  0  0  0  0  0  0  0  0  0  0
  -11.2135    1.4314  -24.8292 O   0  0  0  0  0  0  0  0  0  0  0  0
  -13.1779    0.1590  -23.8645 H   0  0  0  0  0  0  0  0  0  0  0  0
  -14.2698   -1.4592  -22.2951 H   0  0  0  0  0  0  0  0  0  0  0  0
  -10.3993   -2.8177  -21.1017 H   0  0  0  0  0  0  0  0  0  0  0  0
   -9.1531   -1.9015  -25.1312 H   0  0  0  0  0  0  0  0  0  0  0  0
   -7.6443   -1.0652  -24.7747 H   0  0  0  0  0  0  0  0  0  0  0  0
   -8.9815    2.1563  -25.3225 H   0  0  0  0  0  0  0  0  0  0  0  0
   -7.5275    1.1596  -25.1938 H   0  0  0  0  0  0  0  0  0  0  0  0
   -7.9837   -0.0453  -27.7356 C   0  0  0  0  0  0  0  0  0  0  0  0
   -8.1487   -0.2749  -29.0368 N   0  0  0  0  0  0  0  0  0  0  0  0
   -7.3439   -0.7546  -27.2153 H   0  0  0  0  0  0  0  0  0  0  0  0
   -9.8629    2.5486  -29.6717 H   0  0  0  0  0  0  0  0  0  0  0  0
  -10.2902   -0.3136  -31.0689 H   0  0  0  0  0  0  0  0  0  0  0  0
   -9.4585    1.0779  -31.7774 H   0  0  0  0  0  0  0  0  0  0  0  0
   -8.5998   -0.4834  -31.5342 H   0  0  0  0  0  0  0  0  0  0  0  0
  1  2  1  0
  2  3  2  0
  3  4  1  0
  4  5  2  0
  5  6  1  0
  6  7  1  0
  7  8  1  0
  9  8  1  6
  9 10  1  0
 10 11  2  0
 10 12  1  0
 12 13  1  0
 13 14  2  0
 14 15  1  0
 15 16  2  0
 16 17  1  0
 17 18  2  0
 18 19  1  0
 19 20  2  0
 20 21  1  0
 21 22  2  0
 21 23  1  0
 20 24  1  0
 19 25  1  0
 18 26  1  0
 16 27  1  0
 14 28  1  0
 12 29  1  0
 29 30  1  0
 30 31  1  0
 31 32  1  0
 31 33  1  0
 31 34  1  0
 30 35  1  1
 29 36  1  0
 29 37  1  0
  9 38  1  0
 38 39  2  0
 39 40  1  0
 40 41  1  0
 40 42  2  0
 42 43  1  0
 43 44  2  0
 44 45  1  0
 45 46  2  0
 43 47  1  0
 42 48  1  0
 39 49  1  0
  8 50  1  0
  8 51  1  0
  6 52  1  0
  6 53  1  0
  5 54  1  0
 54 55  2  0
 54 56  1  0
  3 57  1  0
  1 58  1  0
  1 59  1  0
  1 60  1  0
 55  2  1  0
 45  7  1  0
 30  9  1  0
 44 38  1  0
 22 13  1  0
 22 17  1  0
M  END
>  <cnnaffinities>  (3) 
[6.1022, 6.07042, 6.40066]

>  <score>  (3) 
6.1022

>  <index>  (3) 
2

>  <Smiles>  (3) 
C(c1c(nc(C(N2C([C@@]3(C(=O)N(c4c(nc(c5c(c(c(c(c45)[H])[H])[H])[H])[H])[H])C([C@@]3(C([H])([H])[H])[H])([H])[H])c3c(c(F)c(c(c3C2=O)[H])[H])[H])([H])[H])([H])[H])c(n1)[H])[H])([H])([H])[H]

>  <h>  (3) 
<NA>

>  <Training>  (3) 
True

>  <Success>  (3) 
True

>  <enamine_searched>  (3) 
False

>  <enamine_id>  (3) 
nan

$$$$

     RDKit          3D

 66 70  0  0  0  0  0  0  0  0999 V2000
   -7.4362    3.3707  -21.7679 C   0  0  0  0  0  0  0  0  0  0  0  0
   -8.3628    2.9530  -22.7960 N   0  0  0  0  0  0  0  0  0  0  0  0
   -7.8351    2.2476  -23.8251 C   0  0  0  0  0  0  0  0  0  0  0  0
   -6.6271    2.1047  -23.9434 O   0  0  0  0  0  0  0  0  0  0  0  0
   -8.7995    1.6448  -24.8321 C   0  0  0  0  0  0  0  0  0  0  0  0
   -9.4636    0.4622  -24.3287 N   0  0  0  0  0  0  0  0  0  0  0  0
   -8.6978   -0.7614  -24.1703 C   0  0  0  0  0  0  0  0  0  0  0  0
   -9.0656   -1.5171  -22.8731 C   0  0  2  0  0  0  0  0  0  0  0  0
   -8.5409   -0.7522  -21.6403 C   0  0  0  0  0  0  0  0  0  0  0  0
   -9.0158    0.2422  -21.1328 O   0  0  0  0  0  0  0  0  0  0  0  0
   -7.4045   -1.3826  -21.1909 N   0  0  0  0  0  0  0  0  0  0  0  0
   -6.6039   -0.8109  -20.1708 C   0  0  0  0  0  0  0  0  0  0  0  0
   -6.9187   -1.0410  -18.8567 C   0  0  0  0  0  0  0  0  0  0  0  0
   -6.2207   -0.5451  -17.8060 N   0  0  0  0  0  0  0  0  0  0  0  0
   -5.1797    0.2065  -18.0759 C   0  0  0  0  0  0  0  0  0  0  0  0
   -4.7378    0.5191  -19.3929 C   0  0  0  0  0  0  0  0  0  0  0  0
   -3.6120    1.3519  -19.6382 C   0  0  0  0  0  0  0  0  0  0  0  0
   -3.2268    1.6502  -20.9162 C   0  0  0  0  0  0  0  0  0  0  0  0
   -3.9519    1.1335  -22.0157 C   0  0  0  0  0  0  0  0  0  0  0  0
   -5.0463    0.3275  -21.8066 C   0  0  0  0  0  0  0  0  0  0  0  0
   -5.4677   -0.0029  -20.4884 C   0  0  0  0  0  0  0  0  0  0  0  0
   -5.6099   -0.0355  -22.6613 H   0  0  0  0  0  0  0  0  0  0  0  0
   -3.6579    1.3881  -23.0299 H   0  0  0  0  0  0  0  0  0  0  0  0
   -2.3728    2.3006  -21.0939 H   0  0  0  0  0  0  0  0  0  0  0  0
   -3.0805    1.7627  -18.7832 H   0  0  0  0  0  0  0  0  0  0  0  0
   -4.6169    0.6050  -17.2289 H   0  0  0  0  0  0  0  0  0  0  0  0
   -7.7804   -1.6584  -18.6090 H   0  0  0  0  0  0  0  0  0  0  0  0
   -7.0407   -2.5655  -21.9414 C   0  0  0  0  0  0  0  0  0  0  0  0
   -8.3019   -2.8714  -22.7641 C   0  0  2  0  0  0  0  0  0  0  0  0
   -7.9764   -3.6059  -24.0705 C   0  0  0  0  0  0  0  0  0  0  0  0
   -9.1321   -3.9152  -24.8162 O   0  0  0  0  0  0  0  0  0  0  0  0
   -9.6991   -5.1960  -24.5686 C   0  0  0  0  0  0  0  0  0  0  0  0
  -11.1958   -5.0549  -24.7537 C   0  0  0  0  0  0  0  0  0  0  0  0
  -11.6974   -6.0098  -24.5613 H   0  0  0  0  0  0  0  0  0  0  0  0
  -11.6027   -4.2974  -24.0770 H   0  0  0  0  0  0  0  0  0  0  0  0
  -11.4130   -4.7447  -25.7799 H   0  0  0  0  0  0  0  0  0  0  0  0
   -9.0960   -6.2321  -25.5053 C   0  0  0  0  0  0  0  0  0  0  0  0
   -9.5478   -7.2141  -25.3382 H   0  0  0  0  0  0  0  0  0  0  0  0
   -8.0169   -6.3318  -25.3589 H   0  0  0  0  0  0  0  0  0  0  0  0
   -9.2729   -5.9428  -26.5445 H   0  0  0  0  0  0  0  0  0  0  0  0
   -9.4899   -5.4828  -23.5301 H   0  0  0  0  0  0  0  0  0  0  0  0
   -7.4055   -4.5218  -23.8523 H   0  0  0  0  0  0  0  0  0  0  0  0
   -7.3381   -2.9767  -24.7064 H   0  0  0  0  0  0  0  0  0  0  0  0
   -8.9494   -3.5322  -22.1830 H   0  0  0  0  0  0  0  0  0  0  0  0
   -6.1749   -2.3728  -22.5917 H   0  0  0  0  0  0  0  0  0  0  0  0
   -6.7683   -3.3808  -21.2647 H   0  0  0  0  0  0  0  0  0  0  0  0
  -10.5773   -1.6185  -22.8159 C   0  0  0  0  0  0  0  0  0  0  0  0
  -11.1932   -2.5256  -21.9445 C   0  0  0  0  0  0  0  0  0  0  0  0
  -12.5733   -2.5570  -21.8418 C   0  0  0  0  0  0  0  0  0  0  0  0
  -13.3311   -3.6263  -20.6938 Cl  0  0  0  0  0  0  0  0  0  0  0  0
  -13.3883   -1.7255  -22.6134 C   0  0  0  0  0  0  0  0  0  0  0  0
  -12.7893   -0.7938  -23.4374 C   0  0  0  0  0  0  0  0  0  0  0  0
  -11.4003   -0.7116  -23.5009 C   0  0  0  0  0  0  0  0  0  0  0  0
  -10.8254    0.4575  -24.2355 C   0  0  0  0  0  0  0  0  0  0  0  0
  -11.5319    1.3545  -24.6848 O   0  0  0  0  0  0  0  0  0  0  0  0
  -13.3677   -0.0700  -24.0059 H   0  0  0  0  0  0  0  0  0  0  0  0
  -14.4661   -1.7990  -22.5137 H   0  0  0  0  0  0  0  0  0  0  0  0
  -10.5992   -3.1761  -21.3101 H   0  0  0  0  0  0  0  0  0  0  0  0
   -8.8941   -1.4320  -25.0149 H   0  0  0  0  0  0  0  0  0  0  0  0
   -7.6387   -0.4917  -24.1659 H   0  0  0  0  0  0  0  0  0  0  0  0
   -9.5952    2.3431  -25.0972 H   0  0  0  0  0  0  0  0  0  0  0  0
   -8.1883    1.4012  -25.7039 H   0  0  0  0  0  0  0  0  0  0  0  0
   -9.3216    2.8056  -22.5227 H   0  0  0  0  0  0  0  0  0  0  0  0
   -6.8144    2.5309  -21.4582 H   0  0  0  0  0  0  0  0  0  0  0  0
   -6.7669    4.1317  -22.1545 H   0  0  0  0  0  0  0  0  0  0  0  0
   -7.9728    3.7692  -20.9141 H   0  0  0  0  0  0  0  0  0  0  0  0
  1  2  1  0
  2  3  1  0
  3  4  2  0
  3  5  1  0
  5  6  1  0
  6  7  1  0
  8  7  1  6
  8  9  1  0
  9 10  2  0
  9 11  1  0
 11 12  1  0
 12 13  2  0
 13 14  1  0
 14 15  2  0
 15 16  1  0
 16 17  2  0
 17 18  1  0
 18 19  2  0
 19 20  1  0
 20 21  2  0
 20 22  1  0
 19 23  1  0
 18 24  1  0
 17 25  1  0
 15 26  1  0
 13 27  1  0
 11 28  1  0
 28 29  1  0
 29 30  1  0
 30 31  1  0
 31 32  1  0
 32 33  1  0
 33 34  1  0
 33 35  1  0
 33 36  1  0
 32 37  1  0
 37 38  1  0
 37 39  1  0
 37 40  1  0
 32 41  1  0
 30 42  1  0
 30 43  1  0
 29 44  1  1
 28 45  1  0
 28 46  1  0
  8 47  1  0
 47 48  2  0
 48 49  1  0
 49 50  1  0
 49 51  2  0
 51 52  1  0
 52 53  2  0
 53 54  1  0
 54 55  2  0
 52 56  1  0
 51 57  1  0
 48 58  1  0
  7 59  1  0
  7 60  1  0
  5 61  1  0
  5 62  1  0
  2 63  1  0
  1 64  1  0
  1 65  1  0
  1 66  1  0
 54  6  1  0
 29  8  1  0
 53 47  1  0
 21 12  1  0
 21 16  1  0
M  END
>  <cnnaffinities>  (4) 
[6.5446]

>  <score>  (4) 
6.5446

>  <index>  (4) 
3

>  <Smiles>  (4) 
C(N(C(=O)C(N1C([C@@]2(C(=O)N(c3c(nc(c4c(c(c(c(c34)[H])[H])[H])[H])[H])[H])C([C@@]2(C(OC(C([H])([H])[H])(C([H])([H])[H])[H])([H])[H])[H])([H])[H])c2c(c(Cl)c(c(c2C1=O)[H])[H])[H])([H])[H])([H])[H])[H])([H])([H])[H]

>  <h>  (4) 
<NA>

>  <Training>  (4) 
True

>  <Success>  (4) 
True

>  <enamine_searched>  (4) 
False

>  <enamine_id>  (4) 
nan

$$$$

     RDKit          3D

 59 64  0  0  0  0  0  0  0  0999 V2000
   -7.7437   -3.5536  -24.1747 C   0  0  0  0  0  0  0  0  0  0  0  0
   -8.1817   -2.9107  -22.8500 C   0  0  1  0  0  0  0  0  0  0  0  0
   -6.9790   -2.6037  -21.9291 C   0  0  0  0  0  0  0  0  0  0  0  0
   -7.3870   -1.4229  -21.1923 N   0  0  0  0  0  0  0  0  0  0  0  0
   -6.6005   -0.8160  -20.1747 C   0  0  0  0  0  0  0  0  0  0  0  0
   -6.9056   -1.0432  -18.8598 C   0  0  0  0  0  0  0  0  0  0  0  0
   -6.2028   -0.5461  -17.8098 N   0  0  0  0  0  0  0  0  0  0  0  0
   -5.1662    0.2080  -18.0820 C   0  0  0  0  0  0  0  0  0  0  0  0
   -4.7308    0.5270  -19.3994 C   0  0  0  0  0  0  0  0  0  0  0  0
   -3.6032    1.3575  -19.6408 C   0  0  0  0  0  0  0  0  0  0  0  0
   -3.2214    1.6578  -20.9192 C   0  0  0  0  0  0  0  0  0  0  0  0
   -3.9499    1.1380  -22.0144 C   0  0  0  0  0  0  0  0  0  0  0  0
   -5.0415    0.3303  -21.8084 C   0  0  0  0  0  0  0  0  0  0  0  0
   -5.4655    0.0028  -20.4895 C   0  0  0  0  0  0  0  0  0  0  0  0
   -5.5995   -0.0612  -22.6547 H   0  0  0  0  0  0  0  0  0  0  0  0
   -3.6438    1.3915  -23.0253 H   0  0  0  0  0  0  0  0  0  0  0  0
   -2.3714    2.3106  -21.0966 H   0  0  0  0  0  0  0  0  0  0  0  0
   -3.0727    1.7685  -18.7855 H   0  0  0  0  0  0  0  0  0  0  0  0
   -4.6172    0.6135  -17.2305 H   0  0  0  0  0  0  0  0  0  0  0  0
   -7.7545   -1.6713  -18.6011 H   0  0  0  0  0  0  0  0  0  0  0  0
   -8.5034   -0.7965  -21.6963 C   0  0  0  0  0  0  0  0  0  0  0  0
   -8.9738    0.2294  -21.2390 O   0  0  0  0  0  0  0  0  0  0  0  0
   -8.9997   -1.5793  -22.9362 C   0  0  1  0  0  0  0  0  0  0  0  0
   -8.6543   -0.7709  -24.2109 C   0  0  0  0  0  0  0  0  0  0  0  0
   -9.4570    0.4245  -24.3020 N   0  0  0  0  0  0  0  0  0  0  0  0
   -8.8033    1.6898  -24.5461 C   0  0  0  0  0  0  0  0  0  0  0  0
   -8.2334    1.8113  -25.9369 C   0  0  0  0  0  0  0  0  0  0  0  0
   -8.9604    1.6685  -27.0218 N   0  0  0  0  0  0  0  0  0  0  0  0
   -8.0988    1.8621  -28.0735 C   0  0  0  0  0  0  0  0  0  0  0  0
   -6.8408    2.1352  -27.6102 C   0  0  0  0  0  0  0  0  0  0  0  0
   -6.9333    2.1143  -26.2337 N   0  0  0  0  0  0  0  0  0  0  0  0
   -5.8440    2.3434  -25.3026 C   0  0  0  0  0  0  0  0  0  0  0  0
   -5.6076    1.4355  -24.7311 H   0  0  0  0  0  0  0  0  0  0  0  0
   -4.9610    2.6339  -25.8784 H   0  0  0  0  0  0  0  0  0  0  0  0
   -6.0942    3.1500  -24.6020 H   0  0  0  0  0  0  0  0  0  0  0  0
   -5.9006    2.3146  -28.1122 H   0  0  0  0  0  0  0  0  0  0  0  0
   -8.4561    1.7670  -29.0916 H   0  0  0  0  0  0  0  0  0  0  0  0
   -8.0421    1.8386  -23.7628 H   0  0  0  0  0  0  0  0  0  0  0  0
   -9.5858    2.4436  -24.4226 H   0  0  0  0  0  0  0  0  0  0  0  0
  -10.8219    0.3430  -24.2790 C   0  0  0  0  0  0  0  0  0  0  0  0
  -11.5437    1.2075  -24.7581 O   0  0  0  0  0  0  0  0  0  0  0  0
  -11.3665   -0.8608  -23.5685 C   0  0  0  0  0  0  0  0  0  0  0  0
  -12.7528   -1.0209  -23.5116 C   0  0  0  0  0  0  0  0  0  0  0  0
  -13.3140   -1.9896  -22.7043 C   0  0  0  0  0  0  0  0  0  0  0  0
  -12.4603   -2.7758  -21.9397 C   0  0  0  0  0  0  0  0  0  0  0  0
  -13.0012   -3.6779  -21.1062 F   0  0  0  0  0  0  0  0  0  0  0  0
  -11.0873   -2.6623  -22.0027 C   0  0  0  0  0  0  0  0  0  0  0  0
  -10.5113   -1.7318  -22.8751 C   0  0  0  0  0  0  0  0  0  0  0  0
  -10.4949   -3.2822  -21.3390 H   0  0  0  0  0  0  0  0  0  0  0  0
  -14.3848   -2.1345  -22.6174 H   0  0  0  0  0  0  0  0  0  0  0  0
  -13.3699   -0.3391  -24.0860 H   0  0  0  0  0  0  0  0  0  0  0  0
   -8.8139   -1.3927  -25.1069 H   0  0  0  0  0  0  0  0  0  0  0  0
   -7.6075   -0.4590  -24.1798 H   0  0  0  0  0  0  0  0  0  0  0  0
   -6.0635   -2.4183  -22.5137 H   0  0  0  0  0  0  0  0  0  0  0  0
   -6.7571   -3.4268  -21.2374 H   0  0  0  0  0  0  0  0  0  0  0  0
   -8.8253   -3.6264  -22.3309 H   0  0  0  0  0  0  0  0  0  0  0  0
   -7.2368   -4.5105  -23.9945 H   0  0  0  0  0  0  0  0  0  0  0  0
   -7.0396   -2.9106  -24.7194 H   0  0  0  0  0  0  0  0  0  0  0  0
   -8.5939   -3.7497  -24.8388 H   0  0  0  0  0  0  0  0  0  0  0  0
  1  2  1  0
  2  3  1  0
  3  4  1  0
  4  5  1  0
  5  6  2  0
  6  7  1  0
  7  8  2  0
  8  9  1  0
  9 10  2  0
 10 11  1  0
 11 12  2  0
 12 13  1  0
 13 14  2  0
 13 15  1  0
 12 16  1  0
 11 17  1  0
 10 18  1  0
  8 19  1  0
  6 20  1  0
  4 21  1  0
 21 22  2  0
 21 23  1  0
 23 24  1  6
 24 25  1  0
 25 26  1  0
 26 27  1  0
 27 28  2  0
 28 29  1  0
 29 30  2  0
 30 31  1  0
 31 32  1  0
 32 33  1  0
 32 34  1  0
 32 35  1  0
 30 36  1  0
 29 37  1  0
 26 38  1  0
 26 39  1  0
 25 40  1  0
 40 41  2  0
 40 42  1  0
 42 43  2  0
 43 44  1  0
 44 45  2  0
 45 46  1  0
 45 47  1  0
 47 48  2  0
 47 49  1  0
 44 50  1  0
 43 51  1  0
 24 52  1  0
 24 53  1  0
  3 54  1  0
  3 55  1  0
  2 56  1  1
  1 57  1  0
  1 58  1  0
  1 59  1  0
 23  2  1  0
 31 27  1  0
 48 42  1  0
 14  5  1  0
 48 23  1  0
 14  9  1  0
M  END
>  <cnnaffinities>  (5) 
[6.27197, 5.81999, 6.35562, 5.90367]

>  <score>  (5) 
6.27197

>  <index>  (5) 
4

>  <Smiles>  (5) 
C([C@]1(C(N(c2c(nc(c3c(c(c(c(c23)[H])[H])[H])[H])[H])[H])C(=O)[C@]21C(N(C(c1nc(c(n1C([H])([H])[H])[H])[H])([H])[H])C(=O)c1c(c(c(F)c(c21)[H])[H])[H])([H])[H])([H])[H])[H])([H])([H])[H]

>  <h>  (5) 
<NA>

>  <Training>  (5) 
True

>  <Success>  (5) 
True

>  <enamine_searched>  (5) 
False

>  <enamine_id>  (5) 
nan

$$$$

     RDKit          3D

 58 61  0  0  0  0  0  0  0  0999 V2000
   -5.2738   -3.1489  -22.5824 C   0  0  0  0  0  0  0  0  0  0  0  0
   -6.5835   -3.3331  -22.4402 C   0  0  0  0  0  0  0  0  0  0  0  0
   -7.4382   -2.8457  -21.3004 C   0  0  0  0  0  0  0  0  0  0  0  0
   -7.4094   -1.3922  -21.1719 N   0  0  0  0  0  0  0  0  0  0  0  0
   -8.1486   -0.5188  -21.9661 C   0  0  0  0  0  0  0  0  0  0  0  0
   -8.2578    0.6518  -21.6546 O   0  0  0  0  0  0  0  0  0  0  0  0
   -8.7987   -1.0533  -23.2502 C   0  0  2  0  0  0  0  0  0  0  0  0
   -7.9653   -0.7740  -24.5175 C   0  0  0  0  0  0  0  0  0  0  0  0
   -7.9544    0.6492  -24.8261 N   0  0  0  0  0  0  0  0  0  0  0  0
   -6.7553    1.2309  -25.3869 C   0  0  0  0  0  0  0  0  0  0  0  0
   -6.6347    0.9220  -26.8816 C   0  0  0  0  0  0  0  0  0  0  0  0
   -6.2393   -0.1601  -27.2878 O   0  0  0  0  0  0  0  0  0  0  0  0
   -7.0072    1.9321  -27.7095 N   0  0  0  0  0  0  0  0  0  0  0  0
   -6.9654    1.7199  -29.1437 C   0  0  0  0  0  0  0  0  0  0  0  0
   -7.3213    2.6204  -29.6496 H   0  0  0  0  0  0  0  0  0  0  0  0
   -7.5855    0.8639  -29.4357 H   0  0  0  0  0  0  0  0  0  0  0  0
   -5.9370    1.5154  -29.4601 H   0  0  0  0  0  0  0  0  0  0  0  0
   -7.5747    2.6757  -27.3260 H   0  0  0  0  0  0  0  0  0  0  0  0
   -6.7762    2.3083  -25.1965 H   0  0  0  0  0  0  0  0  0  0  0  0
   -5.8874    0.7904  -24.8866 H   0  0  0  0  0  0  0  0  0  0  0  0
   -9.0938    1.4082  -24.8539 C   0  0  0  0  0  0  0  0  0  0  0  0
   -9.1290    2.4971  -25.4197 O   0  0  0  0  0  0  0  0  0  0  0  0
  -10.2681    0.7997  -24.1432 C   0  0  0  0  0  0  0  0  0  0  0  0
  -11.5202    1.4062  -24.2362 C   0  0  0  0  0  0  0  0  0  0  0  0
  -12.6595    0.7537  -23.7940 C   0  0  0  0  0  0  0  0  0  0  0  0
  -12.5151   -0.4946  -23.1804 C   0  0  0  0  0  0  0  0  0  0  0  0
  -13.9293   -1.4235  -22.7619 Cl  0  0  0  0  0  0  0  0  0  0  0  0
  -11.2615   -1.0140  -22.9137 C   0  0  0  0  0  0  0  0  0  0  0  0
  -10.1332   -0.3912  -23.4380 C   0  0  0  0  0  0  0  0  0  0  0  0
  -11.1378   -1.9071  -22.3061 H   0  0  0  0  0  0  0  0  0  0  0  0
  -13.6462    1.2055  -23.8960 H   0  0  0  0  0  0  0  0  0  0  0  0
  -11.5694    2.3790  -24.7032 H   0  0  0  0  0  0  0  0  0  0  0  0
   -8.4057   -1.3343  -25.3531 H   0  0  0  0  0  0  0  0  0  0  0  0
   -6.9405   -1.1436  -24.4297 H   0  0  0  0  0  0  0  0  0  0  0  0
   -8.9548   -2.1364  -23.1973 H   0  0  0  0  0  0  0  0  0  0  0  0
   -6.6078   -0.8151  -20.1586 C   0  0  0  0  0  0  0  0  0  0  0  0
   -6.9118   -1.0469  -18.8404 C   0  0  0  0  0  0  0  0  0  0  0  0
   -6.2238   -0.5413  -17.7918 N   0  0  0  0  0  0  0  0  0  0  0  0
   -5.1832    0.2079  -18.0720 C   0  0  0  0  0  0  0  0  0  0  0  0
   -4.7465    0.5117  -19.3922 C   0  0  0  0  0  0  0  0  0  0  0  0
   -3.6147    1.3355  -19.6304 C   0  0  0  0  0  0  0  0  0  0  0  0
   -3.2093    1.6135  -20.9056 C   0  0  0  0  0  0  0  0  0  0  0  0
   -3.9118    1.0719  -22.0047 C   0  0  0  0  0  0  0  0  0  0  0  0
   -5.0078    0.2683  -21.8018 C   0  0  0  0  0  0  0  0  0  0  0  0
   -5.4692   -0.0161  -20.4834 C   0  0  0  0  0  0  0  0  0  0  0  0
   -5.5496   -0.1330  -22.6564 H   0  0  0  0  0  0  0  0  0  0  0  0
   -3.5807    1.3059  -23.0128 H   0  0  0  0  0  0  0  0  0  0  0  0
   -2.3517    2.2580  -21.0777 H   0  0  0  0  0  0  0  0  0  0  0  0
   -3.0955    1.7514  -18.7707 H   0  0  0  0  0  0  0  0  0  0  0  0
   -4.6254    0.6189  -17.2306 H   0  0  0  0  0  0  0  0  0  0  0  0
   -7.7762   -1.6614  -18.5926 H   0  0  0  0  0  0  0  0  0  0  0  0
   -7.1189   -3.2806  -20.3465 H   0  0  0  0  0  0  0  0  0  0  0  0
   -8.4475   -3.1780  -21.5468 H   0  0  0  0  0  0  0  0  0  0  0  0
   -7.4359   -3.9616  -23.5382 C   0  0  0  0  0  0  0  0  0  0  0  0
   -6.8484   -4.2641  -24.5933 O   0  0  0  0  0  0  0  0  0  0  0  0
   -8.6543   -4.0829  -23.2758 O   0  0  0  0  0  1  0  0  0  0  0  0
   -4.7469   -3.5582  -23.4381 H   0  0  0  0  0  0  0  0  0  0  0  0
   -4.7106   -2.5785  -21.8406 H   0  0  0  0  0  0  0  0  0  0  0  0
  1  2  2  0
  2  3  1  0
  3  4  1  0
  4  5  1  0
  5  6  2  0
  5  7  1  0
  7  8  1  0
  8  9  1  0
  9 10  1  0
 10 11  1  0
 11 12  2  0
 11 13  1  0
 13 14  1  0
 14 15  1  0
 14 16  1  0
 14 17  1  0
 13 18  1  0
 10 19  1  0
 10 20  1  0
  9 21  1  0
 21 22  2  0
 21 23  1  0
 23 24  2  0
 24 25  1  0
 25 26  2  0
 26 27  1  0
 26 28  1  0
 28 29  2  0
 28 30  1  0
 25 31  1  0
 24 32  1  0
  8 33  1  0
  8 34  1  0
  7 35  1  1
  4 36  1  0
 36 37  2  0
 37 38  1  0
 38 39  2  0
 39 40  1  0
 40 41  2  0
 41 42  1  0
 42 43  2  0
 43 44  1  0
 44 45  2  0
 44 46  1  0
 43 47  1  0
 42 48  1  0
 41 49  1  0
 39 50  1  0
 37 51  1  0
  3 52  1  0
  3 53  1  0
  2 54  1  0
 54 55  2  0
 54 56  1  0
  1 57  1  0
  1 58  1  0
 29  7  1  0
 45 36  1  0
 29 23  1  0
 45 40  1  0
M  CHG  1  56  -1
M  END
>  <cnnaffinities>  (6) 
[6.04727]

>  <score>  (6) 
6.04727

>  <index>  (6) 
5

>  <Smiles>  (6) 
C(=C(C(N(C(=O)[C@@]1(C(N(C(C(=O)N(C([H])([H])[H])[H])([H])[H])C(=O)c2c(c(c(Cl)c(c12)[H])[H])[H])([H])[H])[H])c1c(nc(c2c(c(c(c(c12)[H])[H])[H])[H])[H])[H])([H])[H])C(=O)[O-])([H])[H]

>  <h>  (6) 
<NA>

>  <Training>  (6) 
True

>  <Success>  (6) 
True

>  <enamine_searched>  (6) 
False

>  <enamine_id>  (6) 
nan

$$$$

     RDKit          3D

 43 45  0  0  0  0  0  0  0  0999 V2000
  -14.3351   -2.6684  -22.7390 C   0  0  0  0  0  0  0  0  0  0  0  0
  -12.9155   -3.1572  -23.0464 C   0  0  0  0  0  0  0  0  0  0  0  0
  -12.0413   -2.0937  -23.7421 C   0  0  0  0  0  0  0  0  0  0  0  0
  -11.9979   -0.7791  -22.9317 C   0  0  0  0  0  0  0  0  0  0  0  0
  -10.6341   -0.1055  -22.9132 C   0  0  0  0  0  0  0  0  0  0  0  0
   -9.5865   -1.0243  -22.4632 N   0  0  0  0  0  0  0  0  0  0  0  0
   -8.5742   -0.4843  -21.7182 C   0  0  0  0  0  0  0  0  0  0  0  0
   -8.5323    0.6991  -21.4359 O   0  0  0  0  0  0  0  0  0  0  0  0
   -7.4749   -1.4482  -21.2532 C   0  0  0  0  0  0  0  0  0  0  0  0
   -6.6104   -0.8489  -20.1847 C   0  0  0  0  0  0  0  0  0  0  0  0
   -6.9235   -1.0540  -18.8687 C   0  0  0  0  0  0  0  0  0  0  0  0
   -6.2510   -0.5468  -17.8035 N   0  0  0  0  0  0  0  0  0  0  0  0
   -5.2111    0.2056  -18.0745 C   0  0  0  0  0  0  0  0  0  0  0  0
   -4.7702    0.5163  -19.3889 C   0  0  0  0  0  0  0  0  0  0  0  0
   -3.6361    1.3334  -19.6228 C   0  0  0  0  0  0  0  0  0  0  0  0
   -3.2421    1.6225  -20.8996 C   0  0  0  0  0  0  0  0  0  0  0  0
   -3.9697    1.1125  -21.9951 C   0  0  0  0  0  0  0  0  0  0  0  0
   -5.0761    0.3250  -21.7958 C   0  0  0  0  0  0  0  0  0  0  0  0
   -5.4969   -0.0090  -20.4817 C   0  0  0  0  0  0  0  0  0  0  0  0
   -5.6357   -0.0406  -22.6499 H   0  0  0  0  0  0  0  0  0  0  0  0
   -3.6476    1.3524  -23.0029 H   0  0  0  0  0  0  0  0  0  0  0  0
   -2.3806    2.2591  -21.0756 H   0  0  0  0  0  0  0  0  0  0  0  0
   -3.0996    1.7354  -18.7684 H   0  0  0  0  0  0  0  0  0  0  0  0
   -4.6608    0.6099  -17.2258 H   0  0  0  0  0  0  0  0  0  0  0  0
   -7.7824   -1.6738  -18.6141 H   0  0  0  0  0  0  0  0  0  0  0  0
   -6.8645   -1.7572  -22.1138 H   0  0  0  0  0  0  0  0  0  0  0  0
   -7.9581   -2.3504  -20.8588 H   0  0  0  0  0  0  0  0  0  0  0  0
   -9.6586   -2.4358  -22.8583 C   0  0  0  0  0  0  0  0  0  0  0  0
  -10.6082   -2.5667  -24.0452 C   0  0  0  0  0  0  0  0  0  0  0  0
  -10.1937   -1.9646  -24.8646 H   0  0  0  0  0  0  0  0  0  0  0  0
  -10.6151   -3.5944  -24.4184 H   0  0  0  0  0  0  0  0  0  0  0  0
   -8.6664   -2.7857  -23.1787 H   0  0  0  0  0  0  0  0  0  0  0  0
   -9.9746   -3.0771  -22.0142 H   0  0  0  0  0  0  0  0  0  0  0  0
  -10.3881    0.3169  -23.9005 H   0  0  0  0  0  0  0  0  0  0  0  0
  -10.6536    0.7283  -22.2096 H   0  0  0  0  0  0  0  0  0  0  0  0
  -12.7150   -0.0514  -23.3303 H   0  0  0  0  0  0  0  0  0  0  0  0
  -12.2931   -0.9646  -21.8923 H   0  0  0  0  0  0  0  0  0  0  0  0
  -12.5044   -1.8854  -24.7156 H   0  0  0  0  0  0  0  0  0  0  0  0
  -12.4250   -3.4710  -22.1115 H   0  0  0  0  0  0  0  0  0  0  0  0
  -12.9824   -4.0482  -23.6889 H   0  0  0  0  0  0  0  0  0  0  0  0
  -14.9398   -3.4807  -22.3343 H   0  0  0  0  0  0  0  0  0  0  0  0
  -14.3449   -1.8726  -21.9849 H   0  0  0  0  0  0  0  0  0  0  0  0
  -14.8459   -2.3000  -23.6390 H   0  0  0  0  0  0  0  0  0  0  0  0
  1  2  1  0
  2  3  1  0
  3  4  1  0
  4  5  1  0
  5  6  1  0
  6  7  1  0
  7  8  2  0
  7  9  1  0
  9 10  1  0
 10 11  2  0
 11 12  1  0
 12 13  2  0
 13 14  1  0
 14 15  2  0
 15 16  1  0
 16 17  2  0
 17 18  1  0
 18 19  2  0
 18 20  1  0
 17 21  1  0
 16 22  1  0
 15 23  1  0
 13 24  1  0
 11 25  1  0
  9 26  1  0
  9 27  1  0
  6 28  1  0
 28 29  1  0
 29 30  1  0
 29 31  1  0
 28 32  1  0
 28 33  1  0
  5 34  1  0
  5 35  1  0
  4 36  1  0
  4 37  1  0
  3 38  1  0
  2 39  1  0
  2 40  1  0
  1 41  1  0
  1 42  1  0
  1 43  1  0
 29  3  1  0
 19 10  1  0
 19 14  1  0
M  END
>  <cnnaffinities>  (7) 
[5.17911, 5.16267]

>  <score>  (7) 
5.17911

>  <index>  (7) 
6

>  <Smiles>  (7) 
C(C(C1(C(C(N(C(=O)C(c2c(nc(c3c(c(c(c(c23)[H])[H])[H])[H])[H])[H])([H])[H])C(C1([H])[H])([H])[H])([H])[H])([H])[H])[H])([H])[H])([H])([H])[H]

>  <h>  (7) 
<NA>

>  <Training>  (7) 
True

>  <Success>  (7) 
True

>  <enamine_searched>  (7) 
False

>  <enamine_id>  (7) 
nan

$$$$

     RDKit          3D

 44 47  0  0  0  0  0  0  0  0999 V2000
   -9.6799   -6.0186  -25.9642 C   0  0  0  0  0  0  0  0  0  0  0  0
  -10.9931   -6.0612  -25.1951 C   0  0  0  0  0  0  0  0  0  0  0  0
  -11.2521   -4.5572  -24.2427 S   0  0  0  0  0  0  0  0  0  0  0  0
  -12.5142   -4.6821  -23.5379 O   0  0  0  0  0  0  0  0  0  0  0  0
  -11.0200   -3.4658  -25.1890 O   0  0  0  0  0  0  0  0  0  0  0  0
  -10.0488   -4.5486  -23.0341 N   0  0  0  0  0  0  0  0  0  0  0  0
   -8.7513   -3.9123  -23.3670 C   0  0  0  0  0  0  0  0  0  0  0  0
   -8.9617   -2.8241  -22.2868 C   0  0  0  0  0  0  0  0  0  0  0  0
  -10.2197   -3.6188  -21.8579 C   0  0  0  0  0  0  0  0  0  0  0  0
  -10.0418   -4.1637  -20.9285 H   0  0  0  0  0  0  0  0  0  0  0  0
  -11.1635   -3.0719  -21.8084 H   0  0  0  0  0  0  0  0  0  0  0  0
   -7.8763   -2.7037  -21.2383 C   0  0  0  0  0  0  0  0  0  0  0  0
   -7.4127   -3.5877  -20.5566 O   0  0  0  0  0  0  0  0  0  0  0  0
   -7.5003   -1.3659  -21.1961 N   0  0  0  0  0  0  0  0  0  0  0  0
   -6.6487   -0.8291  -20.2022 C   0  0  0  0  0  0  0  0  0  0  0  0
   -6.9417   -1.0898  -18.8868 C   0  0  0  0  0  0  0  0  0  0  0  0
   -6.2595   -0.5799  -17.8360 N   0  0  0  0  0  0  0  0  0  0  0  0
   -5.2318    0.1840  -18.1161 C   0  0  0  0  0  0  0  0  0  0  0  0
   -4.7965    0.4857  -19.4359 C   0  0  0  0  0  0  0  0  0  0  0  0
   -3.6599    1.3001  -19.6500 C   0  0  0  0  0  0  0  0  0  0  0  0
   -3.2330    1.5740  -20.9169 C   0  0  0  0  0  0  0  0  0  0  0  0
   -3.9189    1.0389  -22.0275 C   0  0  0  0  0  0  0  0  0  0  0  0
   -5.0291    0.2480  -21.8522 C   0  0  0  0  0  0  0  0  0  0  0  0
   -5.5093   -0.0341  -20.5366 C   0  0  0  0  0  0  0  0  0  0  0  0
   -5.5392   -0.1448  -22.7269 H   0  0  0  0  0  0  0  0  0  0  0  0
   -3.5628    1.2689  -23.0274 H   0  0  0  0  0  0  0  0  0  0  0  0
   -2.3734    2.2164  -21.0726 H   0  0  0  0  0  0  0  0  0  0  0  0
   -3.1614    1.7065  -18.7775 H   0  0  0  0  0  0  0  0  0  0  0  0
   -4.6699    0.6066  -17.2820 H   0  0  0  0  0  0  0  0  0  0  0  0
   -7.7820   -1.7338  -18.6386 H   0  0  0  0  0  0  0  0  0  0  0  0
   -8.2795   -0.5886  -22.0671 C   0  0  0  0  0  0  0  0  0  0  0  0
   -8.2242    0.6118  -22.2134 O   0  0  0  0  0  0  0  0  0  0  0  0
   -9.1153   -1.4552  -22.7142 N   0  0  0  0  0  0  0  0  0  0  0  0
  -10.0499   -0.9866  -23.7114 C   0  0  0  0  0  0  0  0  0  0  0  0
   -9.7925   -1.3741  -24.6994 H   0  0  0  0  0  0  0  0  0  0  0  0
  -11.0692   -1.2891  -23.4587 H   0  0  0  0  0  0  0  0  0  0  0  0
   -9.9894    0.1014  -23.7170 H   0  0  0  0  0  0  0  0  0  0  0  0
   -7.9207   -4.5816  -23.1231 H   0  0  0  0  0  0  0  0  0  0  0  0
   -8.6889   -3.5264  -24.3862 H   0  0  0  0  0  0  0  0  0  0  0  0
  -11.8755   -6.0768  -25.8498 H   0  0  0  0  0  0  0  0  0  0  0  0
  -11.0619   -6.9209  -24.5359 H   0  0  0  0  0  0  0  0  0  0  0  0
   -8.8268   -6.0194  -25.2670 H   0  0  0  0  0  0  0  0  0  0  0  0
   -9.6607   -5.1126  -26.5807 H   0  0  0  0  0  0  0  0  0  0  0  0
   -9.6091   -6.9068  -26.6051 H   0  0  0  0  0  0  0  0  0  0  0  0
  1  2  1  0
  2  3  1  0
  3  4  2  0
  3  5  2  0
  3  6  1  0
  6  7  1  0
  7  8  1  0
  8  9  1  0
  9 10  1  0
  9 11  1  0
  8 12  1  0
 12 13  2  0
 12 14  1  0
 14 15  1  0
 15 16  2  0
 16 17  1  0
 17 18  2  0
 18 19  1  0
 19 20  2  0
 20 21  1  0
 21 22  2  0
 22 23  1  0
 23 24  2  0
 23 25  1  0
 22 26  1  0
 21 27  1  0
 20 28  1  0
 18 29  1  0
 16 30  1  0
 14 31  1  0
 31 32  2  0
 31 33  1  0
 33 34  1  0
 34 35  1  0
 34 36  1  0
 34 37  1  0
  7 38  1  0
  7 39  1  0
  2 40  1  0
  2 41  1  0
  1 42  1  0
  1 43  1  0
  1 44  1  0
  9  6  1  0
 24 15  1  0
 33  8  1  0
 24 19  1  0
M  END
>  <cnnaffinities>  (8) 
[5.56965]

>  <score>  (8) 
5.56965

>  <index>  (8) 
7

>  <Smiles>  (8) 
C(C(S(=O)(=O)N1C(C2(C1([H])[H])C(=O)N(c1c(nc(c3c(c(c(c(c13)[H])[H])[H])[H])[H])[H])C(=O)N2C([H])([H])[H])([H])[H])([H])[H])([H])([H])[H]

>  <h>  (8) 
<NA>

>  <Training>  (8) 
True

>  <Success>  (8) 
True

>  <enamine_searched>  (8) 
False

>  <enamine_id>  (8) 
nan

$$$$

     RDKit          3D

 60 64  0  0  0  0  0  0  0  0999 V2000
   -7.4024    3.3797  -21.7820 C   0  0  0  0  0  0  0  0  0  0  0  0
   -8.2806    2.9257  -22.8494 N   0  0  0  0  0  0  0  0  0  0  0  0
   -7.7173    2.2358  -23.8645 C   0  0  0  0  0  0  0  0  0  0  0  0
   -6.5030    2.1199  -23.9840 O   0  0  0  0  0  0  0  0  0  0  0  0
   -8.6648    1.6127  -24.8927 C   0  0  0  0  0  0  0  0  0  0  0  0
   -9.3884    0.4582  -24.3905 N   0  0  0  0  0  0  0  0  0  0  0  0
   -8.6695   -0.7952  -24.2243 C   0  0  0  0  0  0  0  0  0  0  0  0
   -9.0593   -1.5132  -22.9071 C   0  0  2  0  0  0  0  0  0  0  0  0
   -8.5108   -0.7284  -21.6893 C   0  0  0  0  0  0  0  0  0  0  0  0
   -8.9592    0.2992  -21.2160 O   0  0  0  0  0  0  0  0  0  0  0  0
   -7.4045   -1.3836  -21.2016 N   0  0  0  0  0  0  0  0  0  0  0  0
   -6.6031   -0.8117  -20.1740 C   0  0  0  0  0  0  0  0  0  0  0  0
   -6.9117   -1.0407  -18.8563 C   0  0  0  0  0  0  0  0  0  0  0  0
   -6.2114   -0.5458  -17.8075 N   0  0  0  0  0  0  0  0  0  0  0  0
   -5.1712    0.2070  -18.0769 C   0  0  0  0  0  0  0  0  0  0  0  0
   -4.7311    0.5259  -19.3941 C   0  0  0  0  0  0  0  0  0  0  0  0
   -3.6045    1.3588  -19.6399 C   0  0  0  0  0  0  0  0  0  0  0  0
   -3.2196    1.6503  -20.9203 C   0  0  0  0  0  0  0  0  0  0  0  0
   -3.9413    1.1249  -22.0132 C   0  0  0  0  0  0  0  0  0  0  0  0
   -5.0353    0.3188  -21.8023 C   0  0  0  0  0  0  0  0  0  0  0  0
   -5.4652   -0.0005  -20.4849 C   0  0  0  0  0  0  0  0  0  0  0  0
   -5.5943   -0.0632  -22.6518 H   0  0  0  0  0  0  0  0  0  0  0  0
   -3.6500    1.3744  -23.0295 H   0  0  0  0  0  0  0  0  0  0  0  0
   -2.3676    2.3047  -21.0974 H   0  0  0  0  0  0  0  0  0  0  0  0
   -3.0764    1.7738  -18.7850 H   0  0  0  0  0  0  0  0  0  0  0  0
   -4.6191    0.6110  -17.2278 H   0  0  0  0  0  0  0  0  0  0  0  0
   -7.7664   -1.6651  -18.6030 H   0  0  0  0  0  0  0  0  0  0  0  0
   -7.0698   -2.5982  -21.9187 C   0  0  0  0  0  0  0  0  0  0  0  0
   -8.3290   -2.8862  -22.7587 C   0  0  2  0  0  0  0  0  0  0  0  0
   -7.9800   -3.6533  -24.0323 C   0  0  0  0  0  0  0  0  0  0  0  0
   -9.1479   -3.9350  -24.7616 O   0  0  0  0  0  0  0  0  0  0  0  0
   -8.8660   -4.5829  -25.9786 C   0  0  0  0  0  0  0  0  0  0  0  0
   -8.2690   -3.9464  -26.6517 H   0  0  0  0  0  0  0  0  0  0  0  0
   -8.3149   -5.5223  -25.8174 H   0  0  0  0  0  0  0  0  0  0  0  0
   -9.8213   -4.8082  -26.4583 H   0  0  0  0  0  0  0  0  0  0  0  0
   -7.2768   -3.0649  -24.6460 H   0  0  0  0  0  0  0  0  0  0  0  0
   -7.4675   -4.5965  -23.7764 H   0  0  0  0  0  0  0  0  0  0  0  0
   -9.0003   -3.5238  -22.1831 H   0  0  0  0  0  0  0  0  0  0  0  0
   -6.1902   -2.4439  -22.5655 H   0  0  0  0  0  0  0  0  0  0  0  0
   -6.8296   -3.4091  -21.2205 H   0  0  0  0  0  0  0  0  0  0  0  0
  -10.5776   -1.5591  -22.8372 C   0  0  0  0  0  0  0  0  0  0  0  0
  -11.2139   -2.4367  -21.9498 C   0  0  0  0  0  0  0  0  0  0  0  0
  -12.5937   -2.4507  -21.8571 C   0  0  0  0  0  0  0  0  0  0  0  0
  -13.3751   -3.5334  -20.7425 Cl  0  0  0  0  0  0  0  0  0  0  0  0
  -13.3815   -1.5962  -22.6279 C   0  0  0  0  0  0  0  0  0  0  0  0
  -12.7624   -0.6816  -23.4573 C   0  0  0  0  0  0  0  0  0  0  0  0
  -11.3717   -0.6358  -23.5348 C   0  0  0  0  0  0  0  0  0  0  0  0
  -10.7546    0.5001  -24.2978 C   0  0  0  0  0  0  0  0  0  0  0  0
  -11.4328    1.4041  -24.7645 O   0  0  0  0  0  0  0  0  0  0  0  0
  -13.3242    0.0510  -24.0304 H   0  0  0  0  0  0  0  0  0  0  0  0
  -14.4598   -1.6331  -22.5342 H   0  0  0  0  0  0  0  0  0  0  0  0
  -10.6411   -3.0910  -21.3035 H   0  0  0  0  0  0  0  0  0  0  0  0
   -8.8861   -1.4735  -25.0645 H   0  0  0  0  0  0  0  0  0  0  0  0
   -7.6019   -0.5587  -24.2114 H   0  0  0  0  0  0  0  0  0  0  0  0
   -9.4340    2.3213  -25.2096 H   0  0  0  0  0  0  0  0  0  0  0  0
   -8.0325    1.3382  -25.7448 H   0  0  0  0  0  0  0  0  0  0  0  0
   -9.2708    2.8386  -22.6798 H   0  0  0  0  0  0  0  0  0  0  0  0
   -6.7167    4.1490  -22.1516 H   0  0  0  0  0  0  0  0  0  0  0  0
   -6.8011    2.5349  -21.4159 H   0  0  0  0  0  0  0  0  0  0  0  0
   -8.0072    3.8024  -20.9820 H   0  0  0  0  0  0  0  0  0  0  0  0
  1  2  1  0
  2  3  1  0
  3  4  2  0
  3  5  1  0
  5  6  1  0
  6  7  1  0
  8  7  1  6
  8  9  1  0
  9 10  2  0
  9 11  1  0
 11 12  1  0
 12 13  2  0
 13 14  1  0
 14 15  2  0
 15 16  1  0
 16 17  2  0
 17 18  1  0
 18 19  2  0
 19 20  1  0
 20 21  2  0
 20 22  1  0
 19 23  1  0
 18 24  1  0
 17 25  1  0
 15 26  1  0
 13 27  1  0
 11 28  1  0
 28 29  1  0
 29 30  1  0
 30 31  1  0
 31 32  1  0
 32 33  1  0
 32 34  1  0
 32 35  1  0
 30 36  1  0
 30 37  1  0
 29 38  1  1
 28 39  1  0
 28 40  1  0
  8 41  1  0
 41 42  2  0
 42 43  1  0
 43 44  1  0
 43 45  2  0
 45 46  1  0
 46 47  2  0
 47 48  1  0
 48 49  2  0
 46 50  1  0
 45 51  1  0
 42 52  1  0
  7 53  1  0
  7 54  1  0
  5 55  1  0
  5 56  1  0
  2 57  1  0
  1 58  1  0
  1 59  1  0
  1 60  1  0
 48  6  1  0
 29  8  1  0
 47 41  1  0
 21 12  1  0
 21 16  1  0
M  END
>  <cnnaffinities>  (9) 
[6.45307, 6.25369, 6.48768]

>  <score>  (9) 
6.45307

>  <index>  (9) 
8

>  <Smiles>  (9) 
C(N(C(=O)C(N1C([C@@]2(C(=O)N(c3c(nc(c4c(c(c(c(c34)[H])[H])[H])[H])[H])[H])C([C@@]2(C(OC([H])([H])[H])([H])[H])[H])([H])[H])c2c(c(Cl)c(c(c2C1=O)[H])[H])[H])([H])[H])([H])[H])[H])([H])([H])[H]

>  <h>  (9) 
<NA>

>  <Training>  (9) 
True

>  <Success>  (9) 
True

>  <enamine_searched>  (9) 
False

>  <enamine_id>  (9) 
nan

$$$$

     RDKit          3D

 41 43  0  0  0  0  0  0  0  0999 V2000
   -6.9080    2.2869  -24.2473 C   0  0  0  0  0  0  0  0  0  0  0  0
   -7.5667    1.3636  -25.2745 C   0  0  1  0  0  0  0  0  0  0  0  0
   -6.8307    0.0413  -25.3369 C   0  0  0  0  0  0  0  0  0  0  0  0
   -7.1962   -1.1355  -24.8344 C   0  0  0  0  0  0  0  0  0  0  0  0
   -8.4787   -1.3811  -24.0828 C   0  0  0  0  0  0  0  0  0  0  0  0
   -8.8149   -0.3389  -23.1318 N   0  0  0  0  0  0  0  0  0  0  0  0
   -8.4970   -0.3777  -21.7938 C   0  0  0  0  0  0  0  0  0  0  0  0
   -9.0380    0.3702  -21.0000 O   0  0  0  0  0  0  0  0  0  0  0  0
   -7.4450   -1.3956  -21.2835 C   0  0  0  0  0  0  0  0  0  0  0  0
   -6.5783   -0.8257  -20.1781 C   0  0  0  0  0  0  0  0  0  0  0  0
   -6.8777   -1.0396  -18.8556 C   0  0  0  0  0  0  0  0  0  0  0  0
   -6.1915   -0.5358  -17.7932 N   0  0  0  0  0  0  0  0  0  0  0  0
   -5.1564    0.2220  -18.0632 C   0  0  0  0  0  0  0  0  0  0  0  0
   -4.7196    0.5334  -19.3794 C   0  0  0  0  0  0  0  0  0  0  0  0
   -3.5960    1.3657  -19.6225 C   0  0  0  0  0  0  0  0  0  0  0  0
   -3.2085    1.6606  -20.9010 C   0  0  0  0  0  0  0  0  0  0  0  0
   -3.9313    1.1263  -21.9907 C   0  0  0  0  0  0  0  0  0  0  0  0
   -5.0171    0.3103  -21.7852 C   0  0  0  0  0  0  0  0  0  0  0  0
   -5.4469   -0.0062  -20.4708 C   0  0  0  0  0  0  0  0  0  0  0  0
   -5.5546   -0.0803  -22.6473 H   0  0  0  0  0  0  0  0  0  0  0  0
   -3.6163    1.3660  -23.0025 H   0  0  0  0  0  0  0  0  0  0  0  0
   -2.3548    2.3085  -21.0852 H   0  0  0  0  0  0  0  0  0  0  0  0
   -3.0610    1.7820  -18.7720 H   0  0  0  0  0  0  0  0  0  0  0  0
   -4.6013    0.6280  -17.2150 H   0  0  0  0  0  0  0  0  0  0  0  0
   -7.7295   -1.6609  -18.5813 H   0  0  0  0  0  0  0  0  0  0  0  0
   -6.8234   -1.8036  -22.0909 H   0  0  0  0  0  0  0  0  0  0  0  0
   -8.0110   -2.2390  -20.8637 H   0  0  0  0  0  0  0  0  0  0  0  0
   -9.5325    0.8257  -23.6490 C   0  0  0  0  0  0  0  0  0  0  0  0
   -9.0811    1.2460  -25.0511 C   0  0  0  0  0  0  0  0  0  0  0  0
   -9.5329    2.2232  -25.2660 H   0  0  0  0  0  0  0  0  0  0  0  0
   -9.5076    0.5753  -25.8047 H   0  0  0  0  0  0  0  0  0  0  0  0
  -10.6117    0.6221  -23.6598 H   0  0  0  0  0  0  0  0  0  0  0  0
   -9.3907    1.6543  -22.9515 H   0  0  0  0  0  0  0  0  0  0  0  0
   -9.3084   -1.4495  -24.7920 H   0  0  0  0  0  0  0  0  0  0  0  0
   -8.4579   -2.3413  -23.5670 H   0  0  0  0  0  0  0  0  0  0  0  0
   -6.5250   -1.9880  -24.9384 H   0  0  0  0  0  0  0  0  0  0  0  0
   -5.8716    0.0881  -25.8524 H   0  0  0  0  0  0  0  0  0  0  0  0
   -7.4280    1.8354  -26.2591 H   0  0  0  0  0  0  0  0  0  0  0  0
   -5.8471    2.4316  -24.4728 H   0  0  0  0  0  0  0  0  0  0  0  0
   -6.9631    1.8793  -23.2330 H   0  0  0  0  0  0  0  0  0  0  0  0
   -7.3895    3.2700  -24.2300 H   0  0  0  0  0  0  0  0  0  0  0  0
  1  2  1  0
  2  3  1  0
  3  4  2  0
  4  5  1  0
  5  6  1  0
  6  7  1  0
  7  8  2  0
  7  9  1  0
  9 10  1  0
 10 11  2  0
 11 12  1  0
 12 13  2  0
 13 14  1  0
 14 15  2  0
 15 16  1  0
 16 17  2  0
 17 18  1  0
 18 19  2  0
 18 20  1  0
 17 21  1  0
 16 22  1  0
 15 23  1  0
 13 24  1  0
 11 25  1  0
  9 26  1  0
  9 27  1  0
  6 28  1  0
 28 29  1  0
 29 30  1  0
 29 31  1  0
 28 32  1  0
 28 33  1  0
  5 34  1  0
  5 35  1  0
  4 36  1  0
  3 37  1  0
  2 38  1  6
  1 39  1  0
  1 40  1  0
  1 41  1  0
 29  2  1  0
 19 10  1  0
 19 14  1  0
M  END
>  <cnnaffinities>  (10) 
[4.8756, 5.21091, 5.12871, 5.26968, 4.95679]

>  <score>  (10) 
4.8756

>  <index>  (10) 
9

>  <Smiles>  (10) 
C([C@]1(C(=C(C(N(C(=O)C(c2c(nc(c3c(c(c(c(c23)[H])[H])[H])[H])[H])[H])([H])[H])C(C1([H])[H])([H])[H])([H])[H])[H])[H])[H])([H])([H])[H]

>  <h>  (10) 
<NA>

>  <Training>  (10) 
True

>  <Success>  (10) 
True

>  <enamine_searched>  (10) 
False

>  <enamine_id>  (10) 
nan

$$$$

     RDKit          3D

 57 62  0  0  0  0  0  0  0  0999 V2000
  -10.4300   -1.1834  -23.2598 C   0  0  0  0  0  0  0  0  0  0  0  0
   -8.9884   -1.5228  -22.9146 C   0  0  1  0  0  0  0  0  0  0  0  0
   -8.3585   -0.5552  -21.9042 C   0  0  0  0  0  0  0  0  0  0  0  0
   -7.3585   -1.3715  -21.2395 N   0  0  0  0  0  0  0  0  0  0  0  0
   -6.5707   -0.8581  -20.1852 C   0  0  0  0  0  0  0  0  0  0  0  0
   -6.8946   -1.0982  -18.8736 C   0  0  0  0  0  0  0  0  0  0  0  0
   -6.2321   -0.5656  -17.8150 N   0  0  0  0  0  0  0  0  0  0  0  0
   -5.2045    0.2067  -18.0801 C   0  0  0  0  0  0  0  0  0  0  0  0
   -4.7479    0.5086  -19.3961 C   0  0  0  0  0  0  0  0  0  0  0  0
   -3.6231    1.3367  -19.6349 C   0  0  0  0  0  0  0  0  0  0  0  0
   -3.2224    1.6058  -20.9147 C   0  0  0  0  0  0  0  0  0  0  0  0
   -3.9201    1.0635  -22.0171 C   0  0  0  0  0  0  0  0  0  0  0  0
   -5.0132    0.2577  -21.8148 C   0  0  0  0  0  0  0  0  0  0  0  0
   -5.4519   -0.0294  -20.4934 C   0  0  0  0  0  0  0  0  0  0  0  0
   -5.5474   -0.1648  -22.6610 H   0  0  0  0  0  0  0  0  0  0  0  0
   -3.5954    1.2968  -23.0273 H   0  0  0  0  0  0  0  0  0  0  0  0
   -2.3675    2.2502  -21.0928 H   0  0  0  0  0  0  0  0  0  0  0  0
   -3.1072    1.7622  -18.7794 H   0  0  0  0  0  0  0  0  0  0  0  0
   -4.6693    0.6397  -17.2336 H   0  0  0  0  0  0  0  0  0  0  0  0
   -7.7327   -1.7496  -18.6333 H   0  0  0  0  0  0  0  0  0  0  0  0
   -7.6205   -2.7225  -21.3299 C   0  0  0  0  0  0  0  0  0  0  0  0
   -7.0081   -3.5701  -20.7140 O   0  0  0  0  0  0  0  0  0  0  0  0
   -8.7872   -2.9487  -22.2935 C   0  0  1  0  0  0  0  0  0  0  0  0
   -9.9963   -3.4120  -21.4480 C   0  0  0  0  0  0  0  0  0  0  0  0
  -11.1069   -3.8959  -22.2578 N   0  0  0  0  0  0  0  0  0  0  0  0
  -12.4706   -3.8794  -21.7235 C   0  0  0  0  0  0  0  0  0  0  0  0
  -13.3642   -2.7368  -22.1298 C   0  0  0  0  0  0  0  0  0  0  0  0
  -14.0406   -1.7567  -21.4895 C   0  0  0  0  0  0  0  0  0  0  0  0
  -14.8092   -1.1062  -22.4353 N   0  0  0  0  0  4  0  0  0  0  0  0
  -14.6043   -1.6878  -23.6218 C   0  0  0  0  0  0  0  0  0  0  0  0
  -13.7384   -2.6836  -23.4592 N   0  0  0  0  0  0  0  0  0  0  0  0
  -13.3880   -3.3668  -24.1287 H   0  0  0  0  0  0  0  0  0  0  0  0
  -15.0649   -1.4220  -24.5523 H   0  0  0  0  0  0  0  0  0  0  0  0
  -15.3950   -0.2962  -22.2618 H   0  0  0  0  0  0  0  0  0  0  0  0
  -14.0896   -1.4801  -20.4409 H   0  0  0  0  0  0  0  0  0  0  0  0
  -12.9476   -4.7301  -22.2098 H   0  0  0  0  0  0  0  0  0  0  0  0
  -12.4579   -4.0473  -20.6390 H   0  0  0  0  0  0  0  0  0  0  0  0
  -10.9223   -4.5330  -23.4478 C   0  0  0  0  0  0  0  0  0  0  0  0
  -11.8749   -4.8447  -24.1695 O   0  0  0  0  0  0  0  0  0  0  0  0
   -9.5135   -4.7864  -23.8597 C   0  0  0  0  0  0  0  0  0  0  0  0
   -9.2533   -5.7558  -24.8299 C   0  0  0  0  0  0  0  0  0  0  0  0
   -7.9895   -5.8867  -25.3766 C   0  0  0  0  0  0  0  0  0  0  0  0
   -6.9942   -5.0305  -24.9176 C   0  0  0  0  0  0  0  0  0  0  0  0
   -5.7899   -5.0733  -25.5121 F   0  0  0  0  0  0  0  0  0  0  0  0
   -7.2077   -4.1129  -23.9043 C   0  0  0  0  0  0  0  0  0  0  0  0
   -8.4838   -3.9963  -23.3430 C   0  0  0  0  0  0  0  0  0  0  0  0
   -6.3925   -3.4779  -23.5724 H   0  0  0  0  0  0  0  0  0  0  0  0
   -7.7639   -6.5940  -26.1717 H   0  0  0  0  0  0  0  0  0  0  0  0
  -10.0556   -6.4107  -25.1504 H   0  0  0  0  0  0  0  0  0  0  0  0
   -9.6580   -4.1806  -20.7391 H   0  0  0  0  0  0  0  0  0  0  0  0
  -10.3515   -2.5548  -20.8717 H   0  0  0  0  0  0  0  0  0  0  0  0
   -7.9006    0.3162  -22.3841 H   0  0  0  0  0  0  0  0  0  0  0  0
   -9.1023   -0.1876  -21.1794 H   0  0  0  0  0  0  0  0  0  0  0  0
   -8.3821   -1.4919  -23.8318 H   0  0  0  0  0  0  0  0  0  0  0  0
  -11.0453   -1.1637  -22.3541 H   0  0  0  0  0  0  0  0  0  0  0  0
  -10.8395   -1.9467  -23.9263 H   0  0  0  0  0  0  0  0  0  0  0  0
  -10.5010   -0.2069  -23.7413 H   0  0  0  0  0  0  0  0  0  0  0  0
  1  2  1  0
  2  3  1  0
  3  4  1  0
  4  5  1  0
  5  6  2  0
  6  7  1  0
  7  8  2  0
  8  9  1  0
  9 10  2  0
 10 11  1  0
 11 12  2  0
 12 13  1  0
 13 14  2  0
 13 15  1  0
 12 16  1  0
 11 17  1  0
 10 18  1  0
  8 19  1  0
  6 20  1  0
  4 21  1  0
 21 22  2  0
 21 23  1  0
 23 24  1  1
 24 25  1  0
 25 26  1  0
 26 27  1  0
 27 28  2  0
 28 29  1  0
 29 30  2  0
 30 31  1  0
 31 32  1  0
 30 33  1  0
 29 34  1  0
 28 35  1  0
 26 36  1  0
 26 37  1  0
 25 38  1  0
 38 39  2  0
 38 40  1  0
 40 41  2  0
 41 42  1  0
 42 43  2  0
 43 44  1  0
 43 45  1  0
 45 46  2  0
 45 47  1  0
 42 48  1  0
 41 49  1  0
 24 50  1  0
 24 51  1  0
  3 52  1  0
  3 53  1  0
  2 54  1  6
  1 55  1  0
  1 56  1  0
  1 57  1  0
 23  2  1  0
 31 27  1  0
 46 40  1  0
 14  5  1  0
 46 23  1  0
 14  9  1  0
M  CHG  1  29   1
M  END
>  <cnnaffinities>  (11) 
[6.78392]

>  <score>  (11) 
6.78392

>  <index>  (11) 
10

>  <Smiles>  (11) 
C([C@]1(C(N(c2c(nc(c3c(c(c(c(c23)[H])[H])[H])[H])[H])[H])C(=O)[C@]21C(N(C(c1c([n+](c(n1[H])[H])[H])[H])([H])[H])C(=O)c1c(c(c(F)c(c21)[H])[H])[H])([H])[H])([H])[H])[H])([H])([H])[H]

>  <h>  (11) 
<NA>

>  <Training>  (11) 
True

>  <Success>  (11) 
True

>  <enamine_searched>  (11) 
False

>  <enamine_id>  (11) 
nan

$$$$

     RDKit          3D

 48 52  0  0  0  0  0  0  0  0999 V2000
  -10.1053   -0.8340  -23.6165 C   0  0  0  0  0  0  0  0  0  0  0  0
   -9.1548   -1.3985  -22.6824 N   0  0  0  0  0  0  0  0  0  0  0  0
   -8.2906   -0.5770  -22.0112 C   0  0  0  0  0  0  0  0  0  0  0  0
   -8.2203    0.6301  -22.1041 O   0  0  0  0  0  0  0  0  0  0  0  0
   -7.5113   -1.3945  -21.1775 N   0  0  0  0  0  0  0  0  0  0  0  0
   -6.6564   -0.8720  -20.1679 C   0  0  0  0  0  0  0  0  0  0  0  0
   -6.9573   -1.1068  -18.8517 C   0  0  0  0  0  0  0  0  0  0  0  0
   -6.2807   -0.5760  -17.8056 N   0  0  0  0  0  0  0  0  0  0  0  0
   -5.2532    0.1914  -18.0791 C   0  0  0  0  0  0  0  0  0  0  0  0
   -4.8058    0.4829  -19.3978 C   0  0  0  0  0  0  0  0  0  0  0  0
   -3.6670    1.3023  -19.6317 C   0  0  0  0  0  0  0  0  0  0  0  0
   -3.2459    1.5555  -20.9082 C   0  0  0  0  0  0  0  0  0  0  0  0
   -3.9462    1.0062  -22.0059 C   0  0  0  0  0  0  0  0  0  0  0  0
   -5.0542    0.2185  -21.8053 C   0  0  0  0  0  0  0  0  0  0  0  0
   -5.5213   -0.0606  -20.4885 C   0  0  0  0  0  0  0  0  0  0  0  0
   -5.5890   -0.1847  -22.6584 H   0  0  0  0  0  0  0  0  0  0  0  0
   -3.6085    1.2178  -23.0181 H   0  0  0  0  0  0  0  0  0  0  0  0
   -2.3778    2.1855  -21.0907 H   0  0  0  0  0  0  0  0  0  0  0  0
   -3.1497    1.7361  -18.7796 H   0  0  0  0  0  0  0  0  0  0  0  0
   -4.7104    0.6161  -17.2331 H   0  0  0  0  0  0  0  0  0  0  0  0
   -7.7998   -1.7449  -18.5998 H   0  0  0  0  0  0  0  0  0  0  0  0
   -7.9729   -2.7086  -21.2157 C   0  0  0  0  0  0  0  0  0  0  0  0
   -7.6107   -3.6084  -20.5019 O   0  0  0  0  0  0  0  0  0  0  0  0
   -9.0025   -2.7899  -22.3310 C   0  0  0  0  0  0  0  0  0  0  0  0
   -8.6501   -3.8458  -23.4180 C   0  0  0  0  0  0  0  0  0  0  0  0
   -9.9215   -4.5623  -23.1934 N   0  0  0  0  0  0  0  0  0  0  0  0
  -11.0392   -4.5479  -24.4705 S   0  0  0  0  0  0  0  0  0  0  0  0
  -12.2427   -5.1220  -23.9099 O   0  0  0  0  0  0  0  0  0  0  0  0
  -11.0746   -3.2132  -25.0619 O   0  0  0  0  0  0  0  0  0  0  0  0
  -10.4012   -5.6106  -25.7612 C   0  0  0  0  0  0  0  0  0  0  0  0
  -10.1462   -6.9635  -25.5632 C   0  0  0  0  0  0  0  0  0  0  0  0
   -9.6521   -7.7310  -26.6153 C   0  0  0  0  0  0  0  0  0  0  0  0
   -9.4207   -7.1489  -27.8567 C   0  0  0  0  0  0  0  0  0  0  0  0
   -9.7163   -5.8055  -28.0627 C   0  0  0  0  0  0  0  0  0  0  0  0
  -10.2361   -5.0469  -27.0228 C   0  0  0  0  0  0  0  0  0  0  0  0
  -10.5455   -4.0219  -27.1804 H   0  0  0  0  0  0  0  0  0  0  0  0
   -9.5465   -5.3519  -29.0362 H   0  0  0  0  0  0  0  0  0  0  0  0
   -9.0639   -7.7547  -28.6828 H   0  0  0  0  0  0  0  0  0  0  0  0
   -9.4601   -8.7917  -26.4740 H   0  0  0  0  0  0  0  0  0  0  0  0
  -10.3473   -7.4240  -24.6076 H   0  0  0  0  0  0  0  0  0  0  0  0
  -10.2412   -3.6691  -22.0221 C   0  0  0  0  0  0  0  0  0  0  0  0
  -10.1036   -4.2169  -21.0910 H   0  0  0  0  0  0  0  0  0  0  0  0
  -11.2281   -3.2022  -22.0233 H   0  0  0  0  0  0  0  0  0  0  0  0
   -8.5110   -3.4829  -24.4370 H   0  0  0  0  0  0  0  0  0  0  0  0
   -7.8174   -4.4722  -23.0861 H   0  0  0  0  0  0  0  0  0  0  0  0
   -9.9078    0.2396  -23.6356 H   0  0  0  0  0  0  0  0  0  0  0  0
  -11.1343   -1.0024  -23.2828 H   0  0  0  0  0  0  0  0  0  0  0  0
   -9.9667   -1.2617  -24.6103 H   0  0  0  0  0  0  0  0  0  0  0  0
  1  2  1  0
  2  3  1  0
  3  4  2  0
  3  5  1  0
  5  6  1  0
  6  7  2  0
  7  8  1  0
  8  9  2  0
  9 10  1  0
 10 11  2  0
 11 12  1  0
 12 13  2  0
 13 14  1  0
 14 15  2  0
 14 16  1  0
 13 17  1  0
 12 18  1  0
 11 19  1  0
  9 20  1  0
  7 21  1  0
  5 22  1  0
 22 23  2  0
 22 24  1  0
 24 25  1  0
 25 26  1  0
 26 27  1  0
 27 28  2  0
 27 29  2  0
 27 30  1  0
 30 31  2  0
 31 32  1  0
 32 33  2  0
 33 34  1  0
 34 35  2  0
 35 36  1  0
 34 37  1  0
 33 38  1  0
 32 39  1  0
 31 40  1  0
 26 41  1  0
 41 42  1  0
 41 43  1  0
 25 44  1  0
 25 45  1  0
  1 46  1  0
  1 47  1  0
  1 48  1  0
 24  2  1  0
 35 30  1  0
 15  6  1  0
 41 24  1  0
 15 10  1  0
M  END
>  <cnnaffinities>  (12) 
[5.73654, 5.72413]

>  <score>  (12) 
5.73654

>  <index>  (12) 
11

>  <Smiles>  (12) 
C(N1C(=O)N(c2c(nc(c3c(c(c(c(c23)[H])[H])[H])[H])[H])[H])C(=O)C21C(N(S(=O)(=O)c1c(c(c(c(c1[H])[H])[H])[H])[H])C2([H])[H])([H])[H])([H])([H])[H]

>  <h>  (12) 
<NA>

>  <Training>  (12) 
True

>  <Success>  (12) 
True

>  <enamine_searched>  (12) 
False

>  <enamine_id>  (12) 
nan

$$$$

     RDKit          3D

 76 82  0  0  0  0  0  0  0  0999 V2000
  -11.0711    1.5573  -24.8523 O   0  0  0  0  0  0  0  0  0  0  0  0
  -10.4893    0.5655  -24.4334 C   0  0  0  0  0  0  0  0  0  0  0  0
  -11.1500   -0.4101  -23.5015 C   0  0  0  0  0  0  0  0  0  0  0  0
  -12.5393   -0.4212  -23.3965 C   0  0  0  0  0  0  0  0  0  0  0  0
  -13.1848   -1.3299  -22.5744 C   0  0  0  0  0  0  0  0  0  0  0  0
  -12.4032   -2.1640  -21.7777 C   0  0  0  0  0  0  0  0  0  0  0  0
  -13.1654   -3.3521  -20.7596 Cl  0  0  0  0  0  0  0  0  0  0  0  0
  -11.0221   -2.1235  -21.8297 C   0  0  0  0  0  0  0  0  0  0  0  0
  -10.3764   -1.3179  -22.7719 C   0  0  0  0  0  0  0  0  0  0  0  0
   -8.8780   -1.4525  -23.0233 C   0  0  1  0  0  0  0  0  0  0  0  0
   -8.6339   -1.0289  -24.4937 C   0  0  0  0  0  0  0  0  0  0  0  0
   -9.2041    0.2690  -24.7877 N   0  0  0  0  0  0  0  0  0  0  0  0
   -8.4863    1.2117  -25.6303 C   0  0  0  0  0  0  0  0  0  0  0  0
   -7.8385    2.3235  -24.8003 C   0  0  0  0  0  0  0  0  0  0  0  0
   -7.1788    3.3959  -25.6127 N   0  0  0  0  0  4  0  0  0  0  0  0
   -8.1465    4.2924  -26.3444 C   0  0  0  0  0  0  0  0  0  0  0  0
   -7.3841    5.4169  -27.0299 C   0  0  0  0  0  0  0  0  0  0  0  0
   -6.3962    4.9243  -27.9152 O   0  0  0  0  0  0  0  0  0  0  0  0
   -5.4480    4.1354  -27.2201 C   0  0  0  0  0  0  0  0  0  0  0  0
   -6.0894    2.9268  -26.5507 C   0  0  0  0  0  0  0  0  0  0  0  0
   -5.3463    2.3608  -25.9811 H   0  0  0  0  0  0  0  0  0  0  0  0
   -6.5235    2.2789  -27.3149 H   0  0  0  0  0  0  0  0  0  0  0  0
   -4.9490    4.7467  -26.4490 H   0  0  0  0  0  0  0  0  0  0  0  0
   -4.6988    3.8173  -27.9500 H   0  0  0  0  0  0  0  0  0  0  0  0
   -6.9137    6.0500  -26.2588 H   0  0  0  0  0  0  0  0  0  0  0  0
   -8.0683    6.0336  -27.6185 H   0  0  0  0  0  0  0  0  0  0  0  0
   -8.6848    3.7061  -27.0934 H   0  0  0  0  0  0  0  0  0  0  0  0
   -8.8645    4.6983  -25.6256 H   0  0  0  0  0  0  0  0  0  0  0  0
   -6.7029    4.0020  -24.9129 H   0  0  0  0  0  0  0  0  0  0  0  0
   -7.0875    1.8952  -24.1292 H   0  0  0  0  0  0  0  0  0  0  0  0
   -8.6010    2.8001  -24.1773 H   0  0  0  0  0  0  0  0  0  0  0  0
   -9.1993    1.6328  -26.3455 H   0  0  0  0  0  0  0  0  0  0  0  0
   -7.7155    0.6696  -26.1921 H   0  0  0  0  0  0  0  0  0  0  0  0
   -9.0898   -1.7858  -25.1498 H   0  0  0  0  0  0  0  0  0  0  0  0
   -7.5672   -0.9947  -24.7141 H   0  0  0  0  0  0  0  0  0  0  0  0
   -8.0970   -0.5495  -22.0533 C   0  0  0  0  0  0  0  0  0  0  0  0
   -8.0959    0.6658  -22.0337 O   0  0  0  0  0  0  0  0  0  0  0  0
   -7.3859   -1.3460  -21.1876 N   0  0  0  0  0  0  0  0  0  0  0  0
   -6.5809   -0.8125  -20.1650 C   0  0  0  0  0  0  0  0  0  0  0  0
   -6.8823   -1.0677  -18.8521 C   0  0  0  0  0  0  0  0  0  0  0  0
   -6.2022   -0.5607  -17.7970 N   0  0  0  0  0  0  0  0  0  0  0  0
   -5.1743    0.2085  -18.0701 C   0  0  0  0  0  0  0  0  0  0  0  0
   -4.7336    0.5190  -19.3877 C   0  0  0  0  0  0  0  0  0  0  0  0
   -3.6082    1.3513  -19.6184 C   0  0  0  0  0  0  0  0  0  0  0  0
   -3.1934    1.6218  -20.8926 C   0  0  0  0  0  0  0  0  0  0  0  0
   -3.8761    1.0672  -21.9977 C   0  0  0  0  0  0  0  0  0  0  0  0
   -4.9685    0.2619  -21.8014 C   0  0  0  0  0  0  0  0  0  0  0  0
   -5.4403   -0.0132  -20.4839 C   0  0  0  0  0  0  0  0  0  0  0  0
   -5.4901   -0.1529  -22.6578 H   0  0  0  0  0  0  0  0  0  0  0  0
   -3.5369    1.2895  -23.0054 H   0  0  0  0  0  0  0  0  0  0  0  0
   -2.3384    2.2684  -21.0631 H   0  0  0  0  0  0  0  0  0  0  0  0
   -3.0978    1.7746  -18.7584 H   0  0  0  0  0  0  0  0  0  0  0  0
   -4.6273    0.6260  -17.2255 H   0  0  0  0  0  0  0  0  0  0  0  0
   -7.7425   -1.6915  -18.6127 H   0  0  0  0  0  0  0  0  0  0  0  0
   -7.6517   -2.7611  -21.3161 C   0  0  0  0  0  0  0  0  0  0  0  0
   -8.3513   -2.8812  -22.6849 C   0  0  2  0  0  0  0  0  0  0  0  0
   -7.4530   -3.5220  -23.7540 C   0  0  0  0  0  0  0  0  0  0  0  0
   -7.0890   -4.8752  -23.4092 N   0  0  0  0  0  0  0  0  0  0  0  0
   -7.8748   -5.9519  -23.6787 C   0  0  0  0  0  0  0  0  0  0  0  0
   -7.3944   -7.1450  -23.2727 N   0  0  0  0  0  0  0  0  0  0  0  0
   -8.1472   -8.1933  -23.5564 C   0  0  0  0  0  0  0  0  0  0  0  0
   -9.3527   -8.1141  -24.2502 C   0  0  0  0  0  0  0  0  0  0  0  0
   -9.7519   -6.8382  -24.6101 C   0  0  0  0  0  0  0  0  0  0  0  0
   -9.0437   -5.7460  -24.3124 N   0  0  0  0  0  0  0  0  0  0  0  0
  -10.6901   -6.6895  -25.1499 H   0  0  0  0  0  0  0  0  0  0  0  0
   -9.9650   -8.9804  -24.4665 H   0  0  0  0  0  0  0  0  0  0  0  0
   -7.7492   -9.1469  -23.2138 H   0  0  0  0  0  0  0  0  0  0  0  0
   -6.2036   -5.0641  -22.9682 H   0  0  0  0  0  0  0  0  0  0  0  0
   -6.5484   -2.9238  -23.9198 H   0  0  0  0  0  0  0  0  0  0  0  0
   -8.0072   -3.5895  -24.6916 H   0  0  0  0  0  0  0  0  0  0  0  0
   -9.1991   -3.5685  -22.6136 H   0  0  0  0  0  0  0  0  0  0  0  0
   -6.7091   -3.3162  -21.2570 H   0  0  0  0  0  0  0  0  0  0  0  0
   -8.2970   -3.1266  -20.5033 H   0  0  0  0  0  0  0  0  0  0  0  0
  -10.4682   -2.7592  -21.1469 H   0  0  0  0  0  0  0  0  0  0  0  0
  -14.2677   -1.3505  -22.5119 H   0  0  0  0  0  0  0  0  0  0  0  0
  -13.0974    0.3098  -23.9693 H   0  0  0  0  0  0  0  0  0  0  0  0
  1  2  2  0
  2  3  1  0
  3  4  2  0
  4  5  1  0
  5  6  2  0
  6  7  1  0
  6  8  1  0
  8  9  2  0
  9 10  1  0
 10 11  1  6
 11 12  1  0
 12 13  1  0
 13 14  1  0
 14 15  1  0
 15 16  1  0
 16 17  1  0
 17 18  1  0
 18 19  1  0
 19 20  1  0
 20 21  1  0
 20 22  1  0
 19 23  1  0
 19 24  1  0
 17 25  1  0
 17 26  1  0
 16 27  1  0
 16 28  1  0
 15 29  1  0
 14 30  1  0
 14 31  1  0
 13 32  1  0
 13 33  1  0
 11 34  1  0
 11 35  1  0
 10 36  1  0
 36 37  2  0
 36 38  1  0
 38 39  1  0
 39 40  2  0
 40 41  1  0
 41 42  2  0
 42 43  1  0
 43 44  2  0
 44 45  1  0
 45 46  2  0
 46 47  1  0
 47 48  2  0
 47 49  1  0
 46 50  1  0
 45 51  1  0
 44 52  1  0
 42 53  1  0
 40 54  1  0
 38 55  1  0
 55 56  1  0
 56 57  1  0
 57 58  1  0
 58 59  1  0
 59 60  2  0
 60 61  1  0
 61 62  2  0
 62 63  1  0
 63 64  2  0
 63 65  1  0
 62 66  1  0
 61 67  1  0
 58 68  1  0
 57 69  1  0
 57 70  1  0
 56 71  1  1
 55 72  1  0
 55 73  1  0
  8 74  1  0
  5 75  1  0
  4 76  1  0
 12  2  1  0
 20 15  1  0
 48 39  1  0
 64 59  1  0
  9  3  1  0
 56 10  1  0
 48 43  1  0
M  CHG  1  15   1
M  END
>  <cnnaffinities>  (13) 
[6.70616, 6.90058, 6.21378]

>  <score>  (13) 
6.70616

>  <index>  (13) 
12

>  <Smiles>  (13) 
O=C1c2c(c(c(Cl)c(c2[C@@]2(C(N1C(C([N+]1(C(C(OC(C1([H])[H])([H])[H])([H])[H])([H])[H])[H])([H])[H])([H])[H])([H])[H])C(=O)N(c1c(nc(c3c(c(c(c(c13)[H])[H])[H])[H])[H])[H])C([C@@]2(C(N(c1nc(c(c(n1)[H])[H])[H])[H])([H])[H])[H])([H])[H])[H])[H])[H]

>  <h>  (13) 
<NA>

>  <Training>  (13) 
True

>  <Success>  (13) 
True

>  <enamine_searched>  (13) 
False

>  <enamine_id>  (13) 
nan

$$$$

     RDKit          3D

 69 74  0  0  0  0  0  0  0  0999 V2000
   -7.4339    3.3925  -21.8450 C   0  0  0  0  0  0  0  0  0  0  0  0
   -8.4738    2.9015  -22.7402 N   0  0  0  0  0  0  0  0  0  0  0  0
   -8.0767    2.1419  -23.8030 C   0  0  0  0  0  0  0  0  0  0  0  0
   -6.8991    1.8865  -24.0221 O   0  0  0  0  0  0  0  0  0  0  0  0
   -9.1549    1.5841  -24.7304 C   0  0  0  0  0  0  0  0  0  0  0  0
   -9.7333    0.3968  -24.1409 N   0  0  0  0  0  0  0  0  0  0  0  0
   -8.9310   -0.8151  -24.0669 C   0  0  0  0  0  0  0  0  0  0  0  0
   -9.2098   -1.6012  -22.7626 C   0  0  2  0  0  0  0  0  0  0  0  0
   -8.6309   -0.8128  -21.5604 C   0  0  0  0  0  0  0  0  0  0  0  0
   -9.1056    0.1744  -21.0351 O   0  0  0  0  0  0  0  0  0  0  0  0
   -7.4396   -1.3989  -21.1938 N   0  0  0  0  0  0  0  0  0  0  0  0
   -6.6266   -0.8270  -20.1822 C   0  0  0  0  0  0  0  0  0  0  0  0
   -6.9429   -1.0426  -18.8641 C   0  0  0  0  0  0  0  0  0  0  0  0
   -6.2413   -0.5553  -17.8127 N   0  0  0  0  0  0  0  0  0  0  0  0
   -5.1960    0.1886  -18.0861 C   0  0  0  0  0  0  0  0  0  0  0  0
   -4.7624    0.5057  -19.4045 C   0  0  0  0  0  0  0  0  0  0  0  0
   -3.6383    1.3421  -19.6379 C   0  0  0  0  0  0  0  0  0  0  0  0
   -3.2538    1.6488  -20.9135 C   0  0  0  0  0  0  0  0  0  0  0  0
   -3.9754    1.1380  -22.0145 C   0  0  0  0  0  0  0  0  0  0  0  0
   -5.0733    0.3323  -21.8174 C   0  0  0  0  0  0  0  0  0  0  0  0
   -5.4925   -0.0135  -20.5014 C   0  0  0  0  0  0  0  0  0  0  0  0
   -5.6401   -0.0066  -22.6792 H   0  0  0  0  0  0  0  0  0  0  0  0
   -3.6636    1.3904  -23.0238 H   0  0  0  0  0  0  0  0  0  0  0  0
   -2.3969    2.2932  -21.0859 H   0  0  0  0  0  0  0  0  0  0  0  0
   -3.1099    1.7445  -18.7775 H   0  0  0  0  0  0  0  0  0  0  0  0
   -4.6270    0.5860  -17.2440 H   0  0  0  0  0  0  0  0  0  0  0  0
   -7.8108   -1.6502  -18.6218 H   0  0  0  0  0  0  0  0  0  0  0  0
   -7.0872   -2.5632  -21.9868 C   0  0  0  0  0  0  0  0  0  0  0  0
   -8.4019   -2.9287  -22.6954 C   0  0  2  0  0  0  0  0  0  0  0  0
   -8.1619   -3.6812  -24.0071 C   0  0  0  0  0  0  0  0  0  0  0  0
   -9.3994   -4.0690  -24.6462 N   0  0  0  0  0  0  0  0  0  0  0  0
   -9.4081   -4.7404  -25.8303 C   0  0  0  0  0  0  0  0  0  0  0  0
  -10.6128   -5.2117  -26.3929 C   0  0  0  0  0  0  0  0  0  0  0  0
  -10.5084   -5.8556  -27.6060 C   0  0  0  0  0  0  0  0  0  0  0  0
   -9.3523   -6.0250  -28.2566 N   0  0  0  0  0  0  0  0  0  0  0  0
   -8.2713   -5.5552  -27.6347 C   0  0  0  0  0  0  0  0  0  0  0  0
   -6.9739   -5.8021  -28.3536 C   0  0  0  0  0  0  0  0  0  0  0  0
   -7.1657   -5.7532  -29.4298 H   0  0  0  0  0  0  0  0  0  0  0  0
   -6.6242   -6.8184  -28.1299 H   0  0  0  0  0  0  0  0  0  0  0  0
   -6.1936   -5.0894  -28.0717 H   0  0  0  0  0  0  0  0  0  0  0  0
   -8.2337   -4.9211  -26.4548 N   0  0  0  0  0  0  0  0  0  0  0  0
  -11.3815   -6.2696  -28.1080 H   0  0  0  0  0  0  0  0  0  0  0  0
  -11.5746   -5.0849  -25.9002 H   0  0  0  0  0  0  0  0  0  0  0  0
  -10.2645   -3.9955  -24.1303 H   0  0  0  0  0  0  0  0  0  0  0  0
   -7.5545   -4.5739  -23.8112 H   0  0  0  0  0  0  0  0  0  0  0  0
   -7.5902   -3.0635  -24.7133 H   0  0  0  0  0  0  0  0  0  0  0  0
   -8.9522   -3.6031  -22.0303 H   0  0  0  0  0  0  0  0  0  0  0  0
   -6.2913   -2.3364  -22.7140 H   0  0  0  0  0  0  0  0  0  0  0  0
   -6.7298   -3.3750  -21.3465 H   0  0  0  0  0  0  0  0  0  0  0  0
  -10.7131   -1.7592  -22.6387 C   0  0  0  0  0  0  0  0  0  0  0  0
  -11.2846   -2.7196  -21.7976 C   0  0  0  0  0  0  0  0  0  0  0  0
  -12.6507   -2.7195  -21.5798 C   0  0  0  0  0  0  0  0  0  0  0  0
  -13.3208   -3.7558  -20.3714 Cl  0  0  0  0  0  0  0  0  0  0  0  0
  -13.5208   -1.8754  -22.2621 C   0  0  0  0  0  0  0  0  0  0  0  0
  -12.9671   -0.9668  -23.1334 C   0  0  0  0  0  0  0  0  0  0  0  0
  -11.5875   -0.8527  -23.2541 C   0  0  0  0  0  0  0  0  0  0  0  0
  -11.0820    0.3584  -23.9596 C   0  0  0  0  0  0  0  0  0  0  0  0
  -11.8280    1.2632  -24.3185 O   0  0  0  0  0  0  0  0  0  0  0  0
  -13.5749   -0.2665  -23.6911 H   0  0  0  0  0  0  0  0  0  0  0  0
  -14.5848   -1.8944  -22.0520 H   0  0  0  0  0  0  0  0  0  0  0  0
  -10.6895   -3.4476  -21.2582 H   0  0  0  0  0  0  0  0  0  0  0  0
   -7.8747   -0.5388  -24.1327 H   0  0  0  0  0  0  0  0  0  0  0  0
   -9.1635   -1.4637  -24.9207 H   0  0  0  0  0  0  0  0  0  0  0  0
   -8.6806    1.3277  -25.6873 H   0  0  0  0  0  0  0  0  0  0  0  0
   -9.9782    2.2811  -24.9175 H   0  0  0  0  0  0  0  0  0  0  0  0
   -9.3972    2.7748  -22.3406 H   0  0  0  0  0  0  0  0  0  0  0  0
   -6.8432    2.5401  -21.4728 H   0  0  0  0  0  0  0  0  0  0  0  0
   -6.7744    4.0850  -22.3786 H   0  0  0  0  0  0  0  0  0  0  0  0
   -7.8917    3.9537  -21.0258 H   0  0  0  0  0  0  0  0  0  0  0  0
  1  2  1  0
  2  3  1  0
  3  4  2  0
  3  5  1  0
  5  6  1  0
  6  7  1  0
  8  7  1  6
  8  9  1  0
  9 10  2  0
  9 11  1  0
 11 12  1  0
 12 13  2  0
 13 14  1  0
 14 15  2  0
 15 16  1  0
 16 17  2  0
 17 18  1  0
 18 19  2  0
 19 20  1  0
 20 21  2  0
 20 22  1  0
 19 23  1  0
 18 24  1  0
 17 25  1  0
 15 26  1  0
 13 27  1  0
 11 28  1  0
 28 29  1  0
 29 30  1  0
 30 31  1  0
 31 32  1  0
 32 33  2  0
 33 34  1  0
 34 35  2  0
 35 36  1  0
 36 37  1  0
 37 38  1  0
 37 39  1  0
 37 40  1  0
 36 41  2  0
 34 42  1  0
 33 43  1  0
 31 44  1  0
 30 45  1  0
 30 46  1  0
 29 47  1  1
 28 48  1  0
 28 49  1  0
  8 50  1  0
 50 51  2  0
 51 52  1  0
 52 53  1  0
 52 54  2  0
 54 55  1  0
 55 56  2  0
 56 57  1  0
 57 58  2  0
 55 59  1  0
 54 60  1  0
 51 61  1  0
  7 62  1  0
  7 63  1  0
  5 64  1  0
  5 65  1  0
  2 66  1  0
  1 67  1  0
  1 68  1  0
  1 69  1  0
 57  6  1  0
 29  8  1  0
 41 32  1  0
 56 50  1  0
 21 12  1  0
 21 16  1  0
M  END
>  <cnnaffinities>  (14) 
[6.31196]

>  <score>  (14) 
6.31196

>  <index>  (14) 
13

>  <Smiles>  (14) 
C(N(C(=O)C(N1C([C@@]2(C(=O)N(c3c(nc(c4c(c(c(c(c34)[H])[H])[H])[H])[H])[H])C([C@@]2(C(N(c2c(c(nc(C([H])([H])[H])n2)[H])[H])[H])([H])[H])[H])([H])[H])c2c(c(Cl)c(c(c2C1=O)[H])[H])[H])([H])[H])([H])[H])[H])([H])([H])[H]

>  <h>  (14) 
<NA>

>  <Training>  (14) 
True

>  <Success>  (14) 
True

>  <enamine_searched>  (14) 
False

>  <enamine_id>  (14) 
nan

$$$$

     RDKit          3D

 73 78  0  0  0  0  0  0  0  0999 V2000
   -7.9425   -3.7514  -24.0042 C   0  0  0  0  0  0  0  0  0  0  0  0
   -8.2960   -2.8760  -22.7981 C   0  0  1  0  0  0  0  0  0  0  0  0
   -7.0988   -2.6547  -21.8483 C   0  0  0  0  0  0  0  0  0  0  0  0
   -7.4064   -1.3940  -21.1980 N   0  0  0  0  0  0  0  0  0  0  0  0
   -6.6045   -0.8134  -20.1757 C   0  0  0  0  0  0  0  0  0  0  0  0
   -6.9024   -1.0491  -18.8586 C   0  0  0  0  0  0  0  0  0  0  0  0
   -6.2011   -0.5506  -17.8092 N   0  0  0  0  0  0  0  0  0  0  0  0
   -5.1686    0.2114  -18.0798 C   0  0  0  0  0  0  0  0  0  0  0  0
   -4.7363    0.5356  -19.3987 C   0  0  0  0  0  0  0  0  0  0  0  0
   -3.6080    1.3679  -19.6427 C   0  0  0  0  0  0  0  0  0  0  0  0
   -3.2186    1.6589  -20.9219 C   0  0  0  0  0  0  0  0  0  0  0  0
   -3.9354    1.1280  -22.0167 C   0  0  0  0  0  0  0  0  0  0  0  0
   -5.0302    0.3228  -21.8050 C   0  0  0  0  0  0  0  0  0  0  0  0
   -5.4703    0.0067  -20.4875 C   0  0  0  0  0  0  0  0  0  0  0  0
   -5.5650   -0.0862  -22.6556 H   0  0  0  0  0  0  0  0  0  0  0  0
   -3.6359    1.3783  -23.0312 H   0  0  0  0  0  0  0  0  0  0  0  0
   -2.3677    2.3108  -21.0984 H   0  0  0  0  0  0  0  0  0  0  0  0
   -3.0797    1.7820  -18.7886 H   0  0  0  0  0  0  0  0  0  0  0  0
   -4.6172    0.6168  -17.2304 H   0  0  0  0  0  0  0  0  0  0  0  0
   -7.7540   -1.6740  -18.5988 H   0  0  0  0  0  0  0  0  0  0  0  0
   -8.3897   -0.6660  -21.8319 C   0  0  0  0  0  0  0  0  0  0  0  0
   -8.8048    0.4035  -21.4378 O   0  0  0  0  0  0  0  0  0  0  0  0
   -8.8382   -1.4436  -23.1001 C   0  0  1  0  0  0  0  0  0  0  0  0
   -8.1520   -0.8420  -24.3591 C   0  0  0  0  0  0  0  0  0  0  0  0
   -8.5984    0.5081  -24.6290 N   0  0  0  0  0  0  0  0  0  0  0  0
   -7.6385    1.5719  -24.8903 C   0  0  0  0  0  0  0  0  0  0  0  0
   -7.5131    2.5188  -23.6941 C   0  0  0  0  0  0  0  0  0  0  0  0
   -6.4223    3.5566  -23.8575 N   0  0  0  0  0  4  0  0  0  0  0  0
   -6.7546    4.6777  -24.8354 C   0  0  0  0  0  0  0  0  0  0  0  0
   -7.7588    5.6772  -24.2564 C   0  0  0  0  0  0  0  0  0  0  0  0
   -7.3559    6.1564  -22.9350 N   0  0  0  0  0  0  0  0  0  0  0  0
   -6.5512    7.6011  -22.8294 S   0  0  0  0  0  0  0  0  0  0  0  0
   -6.0394    7.6908  -21.4760 O   0  0  0  0  0  0  0  0  0  0  0  0
   -7.4138    8.6197  -23.3986 O   0  0  0  0  0  0  0  0  0  0  0  0
   -5.1457    7.5250  -23.9310 C   0  0  0  0  0  0  0  0  0  0  0  0
   -5.5135    7.5001  -24.9616 H   0  0  0  0  0  0  0  0  0  0  0  0
   -4.5142    6.6680  -23.6888 H   0  0  0  0  0  0  0  0  0  0  0  0
   -4.6079    8.4629  -23.7584 H   0  0  0  0  0  0  0  0  0  0  0  0
   -7.0449    5.0955  -21.9729 C   0  0  0  0  0  0  0  0  0  0  0  0
   -5.9865    4.1523  -22.5317 C   0  0  0  0  0  0  0  0  0  0  0  0
   -5.0594    4.7041  -22.7071 H   0  0  0  0  0  0  0  0  0  0  0  0
   -5.7759    3.3327  -21.8391 H   0  0  0  0  0  0  0  0  0  0  0  0
   -7.9782    4.5531  -21.7885 H   0  0  0  0  0  0  0  0  0  0  0  0
   -6.7224    5.5597  -21.0421 H   0  0  0  0  0  0  0  0  0  0  0  0
   -8.7366    5.2030  -24.1317 H   0  0  0  0  0  0  0  0  0  0  0  0
   -7.8920    6.5380  -24.9152 H   0  0  0  0  0  0  0  0  0  0  0  0
   -7.1495    4.2446  -25.7531 H   0  0  0  0  0  0  0  0  0  0  0  0
   -5.8180    5.1853  -25.0780 H   0  0  0  0  0  0  0  0  0  0  0  0
   -5.5900    3.0562  -24.2219 H   0  0  0  0  0  0  0  0  0  0  0  0
   -7.2844    1.9439  -22.7921 H   0  0  0  0  0  0  0  0  0  0  0  0
   -8.4710    3.0203  -23.5406 H   0  0  0  0  0  0  0  0  0  0  0  0
   -6.6657    1.1100  -25.0950 H   0  0  0  0  0  0  0  0  0  0  0  0
   -7.9579    2.1138  -25.7844 H   0  0  0  0  0  0  0  0  0  0  0  0
   -9.9321    0.7944  -24.6716 C   0  0  0  0  0  0  0  0  0  0  0  0
  -10.3735    1.8252  -25.1674 O   0  0  0  0  0  0  0  0  0  0  0  0
  -10.8478   -0.2252  -24.0394 C   0  0  0  0  0  0  0  0  0  0  0  0
  -12.2244   -0.0282  -24.1482 C   0  0  0  0  0  0  0  0  0  0  0  0
  -13.1135   -0.9045  -23.5591 C   0  0  0  0  0  0  0  0  0  0  0  0
  -12.6097   -1.9330  -22.7652 C   0  0  0  0  0  0  0  0  0  0  0  0
  -13.7265   -2.9613  -21.9128 Cl  0  0  0  0  0  0  0  0  0  0  0  0
  -11.2480   -2.1229  -22.6079 C   0  0  0  0  0  0  0  0  0  0  0  0
  -10.3402   -1.2986  -23.2884 C   0  0  0  0  0  0  0  0  0  0  0  0
  -10.9143   -2.8958  -21.9228 H   0  0  0  0  0  0  0  0  0  0  0  0
  -14.1845   -0.7748  -23.6678 H   0  0  0  0  0  0  0  0  0  0  0  0
  -12.5717    0.8597  -24.6634 H   0  0  0  0  0  0  0  0  0  0  0  0
   -8.3778   -1.4925  -25.2192 H   0  0  0  0  0  0  0  0  0  0  0  0
   -7.0663   -0.8197  -24.2116 H   0  0  0  0  0  0  0  0  0  0  0  0
   -6.1511   -2.6048  -22.4095 H   0  0  0  0  0  0  0  0  0  0  0  0
   -6.9953   -3.4540  -21.1063 H   0  0  0  0  0  0  0  0  0  0  0  0
   -9.0725   -3.3823  -22.2183 H   0  0  0  0  0  0  0  0  0  0  0  0
   -7.0894   -3.3402  -24.5574 H   0  0  0  0  0  0  0  0  0  0  0  0
   -7.6629   -4.7616  -23.6861 H   0  0  0  0  0  0  0  0  0  0  0  0
   -8.7805   -3.8418  -24.7043 H   0  0  0  0  0  0  0  0  0  0  0  0
  1  2  1  0
  2  3  1  0
  3  4  1  0
  4  5  1  0
  5  6  2  0
  6  7  1  0
  7  8  2  0
  8  9  1  0
  9 10  2  0
 10 11  1  0
 11 12  2  0
 12 13  1  0
 13 14  2  0
 13 15  1  0
 12 16  1  0
 11 17  1  0
 10 18  1  0
  8 19  1  0
  6 20  1  0
  4 21  1  0
 21 22  2  0
 21 23  1  0
 23 24  1  6
 24 25  1  0
 25 26  1  0
 26 27  1  0
 27 28  1  0
 28 29  1  0
 29 30  1  0
 30 31  1  0
 31 32  1  0
 32 33  2  0
 32 34  2  0
 32 35  1  0
 35 36  1  0
 35 37  1  0
 35 38  1  0
 31 39  1  0
 39 40  1  0
 40 41  1  0
 40 42  1  0
 39 43  1  0
 39 44  1  0
 30 45  1  0
 30 46  1  0
 29 47  1  0
 29 48  1  0
 28 49  1  0
 27 50  1  0
 27 51  1  0
 26 52  1  0
 26 53  1  0
 25 54  1  0
 54 55  2  0
 54 56  1  0
 56 57  2  0
 57 58  1  0
 58 59  2  0
 59 60  1  0
 59 61  1  0
 61 62  2  0
 61 63  1  0
 58 64  1  0
 57 65  1  0
 24 66  1  0
 24 67  1  0
  3 68  1  0
  3 69  1  0
  2 70  1  1
  1 71  1  0
  1 72  1  0
  1 73  1  0
 23  2  1  0
 40 28  1  0
 62 56  1  0
 14  5  1  0
 62 23  1  0
 14  9  1  0
M  CHG  1  28   1
M  END
>  <cnnaffinities>  (15) 
[6.81023]

>  <score>  (15) 
6.81023

>  <index>  (15) 
14

>  <Smiles>  (15) 
C([C@]1(C(N(c2c(nc(c3c(c(c(c(c23)[H])[H])[H])[H])[H])[H])C(=O)[C@]21C(N(C(C([N+]1(C(C(N(S(=O)(=O)C([H])([H])[H])C(C1([H])[H])([H])[H])([H])[H])([H])[H])[H])([H])[H])([H])[H])C(=O)c1c(c(c(Cl)c(c21)[H])[H])[H])([H])[H])([H])[H])[H])([H])([H])[H]

>  <h>  (15) 
<NA>

>  <Training>  (15) 
True

>  <Success>  (15) 
True

>  <enamine_searched>  (15) 
False

>  <enamine_id>  (15) 
nan

$$$$

     RDKit          3D

 63 68  0  0  0  0  0  0  0  0999 V2000
   -7.4096    3.3685  -21.8251 C   0  0  0  0  0  0  0  0  0  0  0  0
   -8.3802    2.8967  -22.8030 N   0  0  0  0  0  0  0  0  0  0  0  0
   -7.8759    2.1782  -23.8516 C   0  0  0  0  0  0  0  0  0  0  0  0
   -6.6760    2.0029  -24.0108 O   0  0  0  0  0  0  0  0  0  0  0  0
   -8.8826    1.5877  -24.8378 C   0  0  0  0  0  0  0  0  0  0  0  0
   -9.5098    0.4071  -24.2814 N   0  0  0  0  0  0  0  0  0  0  0  0
   -8.7331   -0.8152  -24.1445 C   0  0  0  0  0  0  0  0  0  0  0  0
   -9.0825   -1.5706  -22.8367 C   0  0  2  0  0  0  0  0  0  0  0  0
   -8.5515   -0.7832  -21.6173 C   0  0  0  0  0  0  0  0  0  0  0  0
   -9.0404    0.2063  -21.1072 O   0  0  0  0  0  0  0  0  0  0  0  0
   -7.3899   -1.3858  -21.1944 N   0  0  0  0  0  0  0  0  0  0  0  0
   -6.5991   -0.8168  -20.1724 C   0  0  0  0  0  0  0  0  0  0  0  0
   -6.9235   -1.0414  -18.8603 C   0  0  0  0  0  0  0  0  0  0  0  0
   -6.2306   -0.5476  -17.8069 N   0  0  0  0  0  0  0  0  0  0  0  0
   -5.1859    0.2003  -18.0768 C   0  0  0  0  0  0  0  0  0  0  0  0
   -4.7437    0.5171  -19.3936 C   0  0  0  0  0  0  0  0  0  0  0  0
   -3.6199    1.3512  -19.6368 C   0  0  0  0  0  0  0  0  0  0  0  0
   -3.2423    1.6542  -20.9160 C   0  0  0  0  0  0  0  0  0  0  0  0
   -3.9660    1.1444  -22.0159 C   0  0  0  0  0  0  0  0  0  0  0  0
   -5.0566    0.3332  -21.8104 C   0  0  0  0  0  0  0  0  0  0  0  0
   -5.4682   -0.0052  -20.4895 C   0  0  0  0  0  0  0  0  0  0  0  0
   -5.6250   -0.0222  -22.6653 H   0  0  0  0  0  0  0  0  0  0  0  0
   -3.6699    1.4035  -23.0279 H   0  0  0  0  0  0  0  0  0  0  0  0
   -2.3873    2.2992  -21.0912 H   0  0  0  0  0  0  0  0  0  0  0  0
   -3.0881    1.7568  -18.7817 H   0  0  0  0  0  0  0  0  0  0  0  0
   -4.6251    0.5991  -17.2311 H   0  0  0  0  0  0  0  0  0  0  0  0
   -7.7911   -1.6539  -18.6263 H   0  0  0  0  0  0  0  0  0  0  0  0
   -7.0167   -2.5694  -21.9341 C   0  0  0  0  0  0  0  0  0  0  0  0
   -8.2981   -2.9077  -22.7105 C   0  0  2  0  0  0  0  0  0  0  0  0
   -8.0018   -3.6537  -24.0186 C   0  0  0  0  0  0  0  0  0  0  0  0
   -7.4356   -4.9710  -23.7853 N   0  0  0  0  0  0  0  0  0  0  0  0
   -8.0937   -6.1193  -23.5123 C   0  0  0  0  0  0  0  0  0  0  0  0
   -7.1398   -7.0830  -23.2860 C   0  0  0  0  0  0  0  0  0  0  0  0
   -5.9142   -6.4090  -23.4562 C   0  0  0  0  0  0  0  0  0  0  0  0
   -6.1061   -5.1267  -23.7458 N   0  0  0  0  0  0  0  0  0  0  0  0
   -4.9032   -6.7986  -23.3942 H   0  0  0  0  0  0  0  0  0  0  0  0
   -7.3000   -8.1205  -23.0378 H   0  0  0  0  0  0  0  0  0  0  0  0
   -9.1741   -6.1668  -23.5270 H   0  0  0  0  0  0  0  0  0  0  0  0
   -7.2612   -3.1102  -24.6133 H   0  0  0  0  0  0  0  0  0  0  0  0
   -8.9102   -3.7747  -24.6171 H   0  0  0  0  0  0  0  0  0  0  0  0
   -8.8975   -3.5754  -22.0880 H   0  0  0  0  0  0  0  0  0  0  0  0
   -6.1682   -2.3839  -22.6137 H   0  0  0  0  0  0  0  0  0  0  0  0
   -6.7187   -3.3682  -21.2486 H   0  0  0  0  0  0  0  0  0  0  0  0
  -10.5919   -1.6830  -22.7575 C   0  0  0  0  0  0  0  0  0  0  0  0
  -11.1987   -2.6012  -21.8957 C   0  0  0  0  0  0  0  0  0  0  0  0
  -12.5751   -2.6101  -21.7551 C   0  0  0  0  0  0  0  0  0  0  0  0
  -13.2974   -3.6483  -20.5701 Cl  0  0  0  0  0  0  0  0  0  0  0  0
  -13.4072   -1.7782  -22.5025 C   0  0  0  0  0  0  0  0  0  0  0  0
  -12.8117   -0.8576  -23.3354 C   0  0  0  0  0  0  0  0  0  0  0  0
  -11.4256   -0.7723  -23.4172 C   0  0  0  0  0  0  0  0  0  0  0  0
  -10.8678    0.3980  -24.1554 C   0  0  0  0  0  0  0  0  0  0  0  0
  -11.5785    1.2970  -24.5827 O   0  0  0  0  0  0  0  0  0  0  0  0
  -13.3900   -0.1394  -23.9028 H   0  0  0  0  0  0  0  0  0  0  0  0
  -14.4861   -1.8349  -22.3941 H   0  0  0  0  0  0  0  0  0  0  0  0
  -10.6114   -3.2998  -21.3106 H   0  0  0  0  0  0  0  0  0  0  0  0
   -8.9421   -1.4780  -24.9938 H   0  0  0  0  0  0  0  0  0  0  0  0
   -7.6683   -0.5581  -24.1713 H   0  0  0  0  0  0  0  0  0  0  0  0
   -9.6875    2.2900  -25.0852 H   0  0  0  0  0  0  0  0  0  0  0  0
   -8.3266    1.3312  -25.7483 H   0  0  0  0  0  0  0  0  0  0  0  0
   -9.3219    2.7307  -22.4649 H   0  0  0  0  0  0  0  0  0  0  0  0
   -6.7872    2.5272  -21.4789 H   0  0  0  0  0  0  0  0  0  0  0  0
   -7.9360    3.8323  -20.9874 H   0  0  0  0  0  0  0  0  0  0  0  0
   -6.7599    4.1255  -22.2770 H   0  0  0  0  0  0  0  0  0  0  0  0
  1  2  1  0
  2  3  1  0
  3  4  2  0
  3  5  1  0
  5  6  1  0
  6  7  1  0
  8  7  1  6
  8  9  1  0
  9 10  2  0
  9 11  1  0
 11 12  1  0
 12 13  2  0
 13 14  1  0
 14 15  2  0
 15 16  1  0
 16 17  2  0
 17 18  1  0
 18 19  2  0
 19 20  1  0
 20 21  2  0
 20 22  1  0
 19 23  1  0
 18 24  1  0
 17 25  1  0
 15 26  1  0
 13 27  1  0
 11 28  1  0
 28 29  1  0
 29 30  1  0
 30 31  1  0
 31 32  1  0
 32 33  2  0
 33 34  1  0
 34 35  2  0
 34 36  1  0
 33 37  1  0
 32 38  1  0
 30 39  1  0
 30 40  1  0
 29 41  1  1
 28 42  1  0
 28 43  1  0
  8 44  1  0
 44 45  2  0
 45 46  1  0
 46 47  1  0
 46 48  2  0
 48 49  1  0
 49 50  2  0
 50 51  1  0
 51 52  2  0
 49 53  1  0
 48 54  1  0
 45 55  1  0
  7 56  1  0
  7 57  1  0
  5 58  1  0
  5 59  1  0
  2 60  1  0
  1 61  1  0
  1 62  1  0
  1 63  1  0
 51  6  1  0
 29  8  1  0
 35 31  1  0
 50 44  1  0
 21 12  1  0
 21 16  1  0
M  END
>  <cnnaffinities>  (16) 
[6.87815, 7.16854, 6.82802]

>  <score>  (16) 
6.87815

>  <index>  (16) 
15

>  <Smiles>  (16) 
C(N(C(=O)C(N1C([C@@]2(C(=O)N(c3c(nc(c4c(c(c(c(c34)[H])[H])[H])[H])[H])[H])C([C@@]2(C(n2c(c(c(n2)[H])[H])[H])([H])[H])[H])([H])[H])c2c(c(Cl)c(c(c2C1=O)[H])[H])[H])([H])[H])([H])[H])[H])([H])([H])[H]

>  <h>  (16) 
<NA>

>  <Training>  (16) 
True

>  <Success>  (16) 
True

>  <enamine_searched>  (16) 
False

>  <enamine_id>  (16) 
nan

$$$$

     RDKit          3D

 61 66  0  0  0  0  0  0  0  0999 V2000
   -7.3719    3.4014  -21.8124 C   0  0  0  0  0  0  0  0  0  0  0  0
   -8.2273    2.9360  -22.8913 N   0  0  0  0  0  0  0  0  0  0  0  0
   -7.6581    2.2441  -23.9031 C   0  0  0  0  0  0  0  0  0  0  0  0
   -6.4442    2.1256  -24.0152 O   0  0  0  0  0  0  0  0  0  0  0  0
   -8.6079    1.6223  -24.9351 C   0  0  0  0  0  0  0  0  0  0  0  0
   -9.3395    0.4707  -24.4359 N   0  0  0  0  0  0  0  0  0  0  0  0
   -8.6274   -0.7848  -24.2593 C   0  0  0  0  0  0  0  0  0  0  0  0
   -9.0309   -1.4946  -22.9390 C   0  0  2  0  0  0  0  0  0  0  0  0
   -8.4821   -0.7057  -21.7226 C   0  0  0  0  0  0  0  0  0  0  0  0
   -8.9122    0.3380  -21.2713 O   0  0  0  0  0  0  0  0  0  0  0  0
   -7.4004   -1.3816  -21.2060 N   0  0  0  0  0  0  0  0  0  0  0  0
   -6.6026   -0.8115  -20.1764 C   0  0  0  0  0  0  0  0  0  0  0  0
   -6.9096   -1.0420  -18.8589 C   0  0  0  0  0  0  0  0  0  0  0  0
   -6.2096   -0.5471  -17.8090 N   0  0  0  0  0  0  0  0  0  0  0  0
   -5.1701    0.2079  -18.0767 C   0  0  0  0  0  0  0  0  0  0  0  0
   -4.7301    0.5269  -19.3940 C   0  0  0  0  0  0  0  0  0  0  0  0
   -3.6021    1.3592  -19.6393 C   0  0  0  0  0  0  0  0  0  0  0  0
   -3.2163    1.6489  -20.9201 C   0  0  0  0  0  0  0  0  0  0  0  0
   -3.9372    1.1218  -22.0130 C   0  0  0  0  0  0  0  0  0  0  0  0
   -5.0318    0.3167  -21.8019 C   0  0  0  0  0  0  0  0  0  0  0  0
   -5.4639    0.0010  -20.4838 C   0  0  0  0  0  0  0  0  0  0  0  0
   -5.5890   -0.0701  -22.6498 H   0  0  0  0  0  0  0  0  0  0  0  0
   -3.6451    1.3680  -23.0290 H   0  0  0  0  0  0  0  0  0  0  0  0
   -2.3641    2.3012  -21.0980 H   0  0  0  0  0  0  0  0  0  0  0  0
   -3.0744    1.7748  -18.7853 H   0  0  0  0  0  0  0  0  0  0  0  0
   -4.6196    0.6121  -17.2273 H   0  0  0  0  0  0  0  0  0  0  0  0
   -7.7627   -1.6673  -18.6046 H   0  0  0  0  0  0  0  0  0  0  0  0
   -7.0699   -2.6049  -21.9073 C   0  0  0  0  0  0  0  0  0  0  0  0
   -8.3126   -2.8713  -22.7768 C   0  0  2  0  0  0  0  0  0  0  0  0
   -7.9524   -3.6327  -24.0706 C   0  0  0  0  0  0  0  0  0  0  0  0
   -7.4237   -4.9617  -23.7755 N   0  0  0  0  0  0  0  0  0  0  0  0
   -6.1351   -5.2347  -23.6761 N   0  0  0  0  0  0  0  0  0  0  0  0
   -6.1655   -6.5182  -23.3480 C   0  0  0  0  0  0  0  0  0  0  0  0
   -7.4251   -6.9936  -23.2533 N   0  0  0  0  0  0  0  0  0  0  0  0
   -8.2071   -5.9885  -23.5301 N   0  0  0  0  0  0  0  0  0  0  0  0
   -5.2807   -7.1139  -23.1691 H   0  0  0  0  0  0  0  0  0  0  0  0
   -7.1683   -3.1191  -24.6349 H   0  0  0  0  0  0  0  0  0  0  0  0
   -8.8316   -3.7841  -24.7052 H   0  0  0  0  0  0  0  0  0  0  0  0
   -8.9877   -3.5229  -22.2173 H   0  0  0  0  0  0  0  0  0  0  0  0
   -6.1673   -2.4797  -22.5267 H   0  0  0  0  0  0  0  0  0  0  0  0
   -6.8717   -3.4218  -21.2050 H   0  0  0  0  0  0  0  0  0  0  0  0
  -10.5493   -1.5247  -22.8668 C   0  0  0  0  0  0  0  0  0  0  0  0
  -11.1928   -2.3843  -21.9671 C   0  0  0  0  0  0  0  0  0  0  0  0
  -12.5731   -2.3931  -21.8823 C   0  0  0  0  0  0  0  0  0  0  0  0
  -13.3621   -3.4652  -20.7625 Cl  0  0  0  0  0  0  0  0  0  0  0  0
  -13.3549   -1.5460  -22.6657 C   0  0  0  0  0  0  0  0  0  0  0  0
  -12.7266   -0.6434  -23.5011 C   0  0  0  0  0  0  0  0  0  0  0  0
  -11.3342   -0.6038  -23.5758 C   0  0  0  0  0  0  0  0  0  0  0  0
  -10.7050    0.5175  -24.3507 C   0  0  0  0  0  0  0  0  0  0  0  0
  -11.3767    1.4198  -24.8345 O   0  0  0  0  0  0  0  0  0  0  0  0
  -13.2860    0.0824  -24.0830 H   0  0  0  0  0  0  0  0  0  0  0  0
  -14.4346   -1.5761  -22.5767 H   0  0  0  0  0  0  0  0  0  0  0  0
  -10.6285   -3.0296  -21.3051 H   0  0  0  0  0  0  0  0  0  0  0  0
   -8.8310   -1.4608  -25.1067 H   0  0  0  0  0  0  0  0  0  0  0  0
   -7.5587   -0.5493  -24.2396 H   0  0  0  0  0  0  0  0  0  0  0  0
   -7.9734    1.3450  -25.7850 H   0  0  0  0  0  0  0  0  0  0  0  0
   -9.3696    2.3340  -25.2657 H   0  0  0  0  0  0  0  0  0  0  0  0
   -9.2235    2.8747  -22.7457 H   0  0  0  0  0  0  0  0  0  0  0  0
   -6.6735    4.1644  -22.1731 H   0  0  0  0  0  0  0  0  0  0  0  0
   -6.7821    2.5623  -21.4127 H   0  0  0  0  0  0  0  0  0  0  0  0
   -7.9973    3.8427  -21.0368 H   0  0  0  0  0  0  0  0  0  0  0  0
  1  2  1  0
  2  3  1  0
  3  4  2  0
  3  5  1  0
  5  6  1  0
  6  7  1  0
  8  7  1  6
  8  9  1  0
  9 10  2  0
  9 11  1  0
 11 12  1  0
 12 13  2  0
 13 14  1  0
 14 15  2  0
 15 16  1  0
 16 17  2  0
 17 18  1  0
 18 19  2  0
 19 20  1  0
 20 21  2  0
 20 22  1  0
 19 23  1  0
 18 24  1  0
 17 25  1  0
 15 26  1  0
 13 27  1  0
 11 28  1  0
 28 29  1  0
 29 30  1  0
 30 31  1  0
 31 32  1  0
 32 33  2  0
 33 34  1  0
 34 35  2  0
 33 36  1  0
 30 37  1  0
 30 38  1  0
 29 39  1  1
 28 40  1  0
 28 41  1  0
  8 42  1  0
 42 43  2  0
 43 44  1  0
 44 45  1  0
 44 46  2  0
 46 47  1  0
 47 48  2  0
 48 49  1  0
 49 50  2  0
 47 51  1  0
 46 52  1  0
 43 53  1  0
  7 54  1  0
  7 55  1  0
  5 56  1  0
  5 57  1  0
  2 58  1  0
  1 59  1  0
  1 60  1  0
  1 61  1  0
 49  6  1  0
 29  8  1  0
 35 31  1  0
 48 42  1  0
 21 12  1  0
 21 16  1  0
M  END
>  <cnnaffinities>  (17) 
[6.76473, 6.64369]

>  <score>  (17) 
6.76473

>  <index>  (17) 
16

>  <Smiles>  (17) 
C(N(C(=O)C(N1C([C@@]2(C(=O)N(c3c(nc(c4c(c(c(c(c34)[H])[H])[H])[H])[H])[H])C([C@@]2(C(n2nc(nn2)[H])([H])[H])[H])([H])[H])c2c(c(Cl)c(c(c2C1=O)[H])[H])[H])([H])[H])([H])[H])[H])([H])([H])[H]

>  <h>  (17) 
<NA>

>  <Training>  (17) 
True

>  <Success>  (17) 
True

>  <enamine_searched>  (17) 
False

>  <enamine_id>  (17) 
nan

$$$$

     RDKit          3D

 38 41  0  0  0  0  0  0  0  0999 V2000
  -11.8747   -3.4268  -24.6670 C   0  0  0  0  0  0  0  0  0  0  0  0
  -10.4620   -2.9812  -24.2832 C   0  0  2  0  0  0  0  0  0  0  0  0
   -9.4912   -4.1588  -24.3110 C   0  0  0  0  0  0  0  0  0  0  0  0
   -8.0536   -3.7129  -24.0338 C   0  0  0  0  0  0  0  0  0  0  0  0
   -7.9934   -2.8084  -22.8881 C   0  0  0  0  0  0  0  0  0  0  0  0
   -6.8423   -2.4269  -22.1229 C   0  0  0  0  0  0  0  0  0  0  0  0
   -5.6900   -2.7902  -22.2109 O   0  0  0  0  0  1  0  0  0  0  0  0
   -7.3511   -1.4704  -21.1980 N   0  0  0  0  0  0  0  0  0  0  0  0
   -6.5790   -0.8422  -20.1809 C   0  0  0  0  0  0  0  0  0  0  0  0
   -6.8914   -1.0514  -18.8619 C   0  0  0  0  0  0  0  0  0  0  0  0
   -6.1959   -0.5407  -17.8117 N   0  0  0  0  0  0  0  0  0  0  0  0
   -5.1611    0.2147  -18.0752 C   0  0  0  0  0  0  0  0  0  0  0  0
   -4.7278    0.5315  -19.3911 C   0  0  0  0  0  0  0  0  0  0  0  0
   -3.5976    1.3616  -19.6294 C   0  0  0  0  0  0  0  0  0  0  0  0
   -3.2190    1.6674  -20.9064 C   0  0  0  0  0  0  0  0  0  0  0  0
   -3.9523    1.1582  -22.0020 C   0  0  0  0  0  0  0  0  0  0  0  0
   -5.0472    0.3587  -21.7960 C   0  0  0  0  0  0  0  0  0  0  0  0
   -5.4602    0.0049  -20.4838 C   0  0  0  0  0  0  0  0  0  0  0  0
   -5.6112   -0.0243  -22.6393 H   0  0  0  0  0  0  0  0  0  0  0  0
   -3.6536    1.4096  -23.0158 H   0  0  0  0  0  0  0  0  0  0  0  0
   -2.3660    2.3166  -21.0926 H   0  0  0  0  0  0  0  0  0  0  0  0
   -3.0609    1.7715  -18.7764 H   0  0  0  0  0  0  0  0  0  0  0  0
   -4.6098    0.6201  -17.2218 H   0  0  0  0  0  0  0  0  0  0  0  0
   -7.7375   -1.6736  -18.5896 H   0  0  0  0  0  0  0  0  0  0  0  0
   -8.7136   -1.2152  -21.4496 C   0  0  0  0  0  0  0  0  0  0  0  0
   -9.4127   -0.3705  -20.9446 O   0  0  0  0  0  0  0  0  0  0  0  0
   -9.0660   -2.1144  -22.4429 N   0  0  0  0  0  0  0  0  0  0  0  0
  -10.4315   -2.3146  -22.9067 C   0  0  0  0  0  0  0  0  0  0  0  0
  -10.9285   -1.3494  -22.9265 H   0  0  0  0  0  0  0  0  0  0  0  0
  -10.9886   -2.9183  -22.1867 H   0  0  0  0  0  0  0  0  0  0  0  0
   -7.6301   -3.2146  -24.9193 H   0  0  0  0  0  0  0  0  0  0  0  0
   -7.3936   -4.5620  -23.8360 H   0  0  0  0  0  0  0  0  0  0  0  0
   -9.8014   -4.8869  -23.5536 H   0  0  0  0  0  0  0  0  0  0  0  0
   -9.5408   -4.6659  -25.2799 H   0  0  0  0  0  0  0  0  0  0  0  0
  -10.1320   -2.2419  -25.0218 H   0  0  0  0  0  0  0  0  0  0  0  0
  -12.2537   -4.1875  -23.9738 H   0  0  0  0  0  0  0  0  0  0  0  0
  -12.5881   -2.5957  -24.6683 H   0  0  0  0  0  0  0  0  0  0  0  0
  -11.8942   -3.8741  -25.6684 H   0  0  0  0  0  0  0  0  0  0  0  0
  1  2  1  0
  2  3  1  0
  3  4  1  0
  4  5  1  0
  5  6  2  0
  6  7  1  0
  6  8  1  0
  8  9  1  0
  9 10  2  0
 10 11  1  0
 11 12  2  0
 12 13  1  0
 13 14  2  0
 14 15  1  0
 15 16  2  0
 16 17  1  0
 17 18  2  0
 17 19  1  0
 16 20  1  0
 15 21  1  0
 14 22  1  0
 12 23  1  0
 10 24  1  0
  8 25  1  0
 25 26  2  0
 25 27  1  0
 27 28  1  0
 28 29  1  0
 28 30  1  0
  4 31  1  0
  4 32  1  0
  3 33  1  0
  3 34  1  0
  2 35  1  6
  1 36  1  0
  1 37  1  0
  1 38  1  0
 28  2  1  0
 27  5  1  0
 18  9  1  0
 18 13  1  0
M  CHG  1   7  -1
M  END
>  <cnnaffinities>  (18) 
[5.31078, 5.19318]

>  <score>  (18) 
5.31078

>  <index>  (18) 
17

>  <Smiles>  (18) 
C([C@@]1(C(C(c2c([O-])n(c3c(nc(c4c(c(c(c(c34)[H])[H])[H])[H])[H])[H])c(=O)n2C1([H])[H])([H])[H])([H])[H])[H])([H])([H])[H]

>  <h>  (18) 
<NA>

>  <Training>  (18) 
True

>  <Success>  (18) 
True

>  <enamine_searched>  (18) 
False

>  <enamine_id>  (18) 
nan

$$$$

     RDKit          3D

 56 61  0  0  0  0  0  0  0  0999 V2000
   -7.8950   -3.5678  -24.1193 C   0  0  0  0  0  0  0  0  0  0  0  0
   -8.2873   -2.8414  -22.8247 C   0  0  1  0  0  0  0  0  0  0  0  0
   -7.0699   -2.5947  -21.9068 C   0  0  0  0  0  0  0  0  0  0  0  0
   -7.3999   -1.3736  -21.2017 N   0  0  0  0  0  0  0  0  0  0  0  0
   -6.5980   -0.8117  -20.1716 C   0  0  0  0  0  0  0  0  0  0  0  0
   -6.9095   -1.0419  -18.8576 C   0  0  0  0  0  0  0  0  0  0  0  0
   -6.2077   -0.5470  -17.8079 N   0  0  0  0  0  0  0  0  0  0  0  0
   -5.1726    0.2091  -18.0802 C   0  0  0  0  0  0  0  0  0  0  0  0
   -4.7324    0.5293  -19.3970 C   0  0  0  0  0  0  0  0  0  0  0  0
   -3.6040    1.3609  -19.6424 C   0  0  0  0  0  0  0  0  0  0  0  0
   -3.2082    1.6378  -20.9195 C   0  0  0  0  0  0  0  0  0  0  0  0
   -3.9139    1.0885  -22.0122 C   0  0  0  0  0  0  0  0  0  0  0  0
   -5.0053    0.2775  -21.8033 C   0  0  0  0  0  0  0  0  0  0  0  0
   -5.4543   -0.0118  -20.4855 C   0  0  0  0  0  0  0  0  0  0  0  0
   -5.5700   -0.0877  -22.6568 H   0  0  0  0  0  0  0  0  0  0  0  0
   -3.6214    1.3458  -23.0267 H   0  0  0  0  0  0  0  0  0  0  0  0
   -2.3615    2.2983  -21.0989 H   0  0  0  0  0  0  0  0  0  0  0  0
   -3.0816    1.7790  -18.7853 H   0  0  0  0  0  0  0  0  0  0  0  0
   -4.6209    0.6137  -17.2304 H   0  0  0  0  0  0  0  0  0  0  0  0
   -7.7656   -1.6639  -18.6022 H   0  0  0  0  0  0  0  0  0  0  0  0
   -8.4590   -0.6728  -21.7309 C   0  0  0  0  0  0  0  0  0  0  0  0
   -8.8799    0.3622  -21.2657 O   0  0  0  0  0  0  0  0  0  0  0  0
   -8.9961   -1.4532  -22.9668 C   0  0  1  0  0  0  0  0  0  0  0  0
   -8.5693   -0.7574  -24.2833 C   0  0  0  0  0  0  0  0  0  0  0  0
   -9.2797    0.4817  -24.5152 N   0  0  0  0  0  0  0  0  0  0  0  0
   -8.5226    1.6871  -24.8171 C   0  0  0  0  0  0  0  0  0  0  0  0
   -8.1624    2.4918  -23.5925 C   0  0  0  0  0  0  0  0  0  0  0  0
   -8.9537    3.4626  -22.9422 C   0  0  0  0  0  0  0  0  0  0  0  0
   -8.1288    3.9753  -21.9639 C   0  0  0  0  0  0  0  0  0  0  0  0
   -6.9636    3.3033  -22.0481 N   0  0  0  0  0  0  0  0  0  0  0  0
   -6.9653    2.3745  -23.0189 N   0  0  0  0  0  0  0  0  0  0  0  0
   -6.2253    3.3362  -21.3650 H   0  0  0  0  0  0  0  0  0  0  0  0
   -8.2740    4.7192  -21.1935 H   0  0  0  0  0  0  0  0  0  0  0  0
  -10.0084    3.6272  -23.1152 H   0  0  0  0  0  0  0  0  0  0  0  0
   -7.5996    1.3947  -25.3330 H   0  0  0  0  0  0  0  0  0  0  0  0
   -9.1403    2.2830  -25.4976 H   0  0  0  0  0  0  0  0  0  0  0  0
  -10.6357    0.5775  -24.3846 C   0  0  0  0  0  0  0  0  0  0  0  0
  -11.2729    1.5259  -24.8248 O   0  0  0  0  0  0  0  0  0  0  0  0
  -11.2852   -0.5417  -23.6266 C   0  0  0  0  0  0  0  0  0  0  0  0
  -12.6776   -0.5660  -23.5647 C   0  0  0  0  0  0  0  0  0  0  0  0
  -13.3225   -1.4792  -22.7548 C   0  0  0  0  0  0  0  0  0  0  0  0
  -12.5513   -2.3430  -21.9860 C   0  0  0  0  0  0  0  0  0  0  0  0
  -13.1730   -3.1928  -21.1520 F   0  0  0  0  0  0  0  0  0  0  0  0
  -11.1748   -2.3503  -22.0433 C   0  0  0  0  0  0  0  0  0  0  0  0
  -10.5151   -1.4768  -22.9169 C   0  0  0  0  0  0  0  0  0  0  0  0
  -10.6428   -3.0216  -21.3795 H   0  0  0  0  0  0  0  0  0  0  0  0
  -14.3997   -1.5137  -22.6664 H   0  0  0  0  0  0  0  0  0  0  0  0
  -13.2178    0.1770  -24.1440 H   0  0  0  0  0  0  0  0  0  0  0  0
   -7.5018   -0.5130  -24.2242 H   0  0  0  0  0  0  0  0  0  0  0  0
   -8.7514   -1.4442  -25.1237 H   0  0  0  0  0  0  0  0  0  0  0  0
   -6.9056   -3.4152  -21.1974 H   0  0  0  0  0  0  0  0  0  0  0  0
   -6.1451   -2.4755  -22.4927 H   0  0  0  0  0  0  0  0  0  0  0  0
   -8.9904   -3.4781  -22.2846 H   0  0  0  0  0  0  0  0  0  0  0  0
   -8.7504   -3.7182  -24.7884 H   0  0  0  0  0  0  0  0  0  0  0  0
   -7.1331   -3.0061  -24.6739 H   0  0  0  0  0  0  0  0  0  0  0  0
   -7.4711   -4.5534  -23.8984 H   0  0  0  0  0  0  0  0  0  0  0  0
  1  2  1  0
  2  3  1  0
  3  4  1  0
  4  5  1  0
  5  6  2  0
  6  7  1  0
  7  8  2  0
  8  9  1  0
  9 10  2  0
 10 11  1  0
 11 12  2  0
 12 13  1  0
 13 14  2  0
 13 15  1  0
 12 16  1  0
 11 17  1  0
 10 18  1  0
  8 19  1  0
  6 20  1  0
  4 21  1  0
 21 22  2  0
 21 23  1  0
 23 24  1  6
 24 25  1  0
 25 26  1  0
 26 27  1  0
 27 28  1  0
 28 29  2  0
 29 30  1  0
 30 31  1  0
 30 32  1  0
 29 33  1  0
 28 34  1  0
 26 35  1  0
 26 36  1  0
 25 37  1  0
 37 38  2  0
 37 39  1  0
 39 40  2  0
 40 41  1  0
 41 42  2  0
 42 43  1  0
 42 44  1  0
 44 45  2  0
 44 46  1  0
 41 47  1  0
 40 48  1  0
 24 49  1  0
 24 50  1  0
  3 51  1  0
  3 52  1  0
  2 53  1  1
  1 54  1  0
  1 55  1  0
  1 56  1  0
 23  2  1  0
 31 27  2  0
 45 39  1  0
 14  5  1  0
 45 23  1  0
 14  9  1  0
M  END
>  <cnnaffinities>  (19) 
[6.06478, 6.76966]

>  <score>  (19) 
6.06478

>  <index>  (19) 
18

>  <Smiles>  (19) 
C([C@]1(C(N(c2c(nc(c3c(c(c(c(c23)[H])[H])[H])[H])[H])[H])C(=O)[C@]21C(N(C(c1c(c(n(n1)[H])[H])[H])([H])[H])C(=O)c1c(c(c(F)c(c21)[H])[H])[H])([H])[H])([H])[H])[H])([H])([H])[H]

>  <h>  (19) 
<NA>

>  <Training>  (19) 
True

>  <Success>  (19) 
True

>  <enamine_searched>  (19) 
False

>  <enamine_id>  (19) 
nan

$$$$

     RDKit          3D

 42 45  0  0  0  0  0  0  0  0999 V2000
   -9.1427   -0.0601  -20.7264 O   0  0  0  0  0  0  0  0  0  0  0  0
   -8.6536   -0.9057  -21.4502 C   0  0  0  0  0  0  0  0  0  0  0  0
   -9.3665   -1.5023  -22.6766 C   0  0  1  0  0  0  0  0  0  0  0  0
  -10.4377   -0.5580  -23.1886 C   0  0  0  0  0  0  0  0  0  0  0  0
  -10.1001    0.7538  -23.5119 C   0  0  0  0  0  0  0  0  0  0  0  0
  -11.0712    1.6280  -23.9658 C   0  0  0  0  0  0  0  0  0  0  0  0
  -12.3994    1.2413  -24.0786 C   0  0  0  0  0  0  0  0  0  0  0  0
  -13.5518    2.5016  -24.3667 Cl  0  0  0  0  0  0  0  0  0  0  0  0
  -12.7259   -0.0992  -23.8631 C   0  0  0  0  0  0  0  0  0  0  0  0
  -14.3300   -0.6888  -24.1117 Cl  0  0  0  0  0  0  0  0  0  0  0  0
  -11.7472   -0.9858  -23.4060 C   0  0  0  0  0  0  0  0  0  0  0  0
  -12.0445   -2.0122  -23.1860 H   0  0  0  0  0  0  0  0  0  0  0  0
  -10.8321    2.6535  -24.2048 H   0  0  0  0  0  0  0  0  0  0  0  0
   -9.0880    1.1200  -23.3393 H   0  0  0  0  0  0  0  0  0  0  0  0
   -8.3339   -1.7864  -23.7755 C   0  0  0  0  0  0  0  0  0  0  0  0
   -7.2412   -2.7562  -23.3377 C   0  0  2  0  0  0  0  0  0  0  0  0
   -7.5419   -4.1060  -23.6601 O   0  0  0  0  0  0  0  0  0  0  0  0
   -8.3974   -4.3206  -23.2662 H   0  0  0  0  0  0  0  0  0  0  0  0
   -6.9335   -2.6370  -21.8350 C   0  0  0  0  0  0  0  0  0  0  0  0
   -7.3746   -1.3770  -21.2536 N   0  0  0  0  0  0  0  0  0  0  0  0
   -6.6077   -0.8077  -20.1924 C   0  0  0  0  0  0  0  0  0  0  0  0
   -6.9102   -1.0509  -18.8771 C   0  0  0  0  0  0  0  0  0  0  0  0
   -6.2042   -0.5590  -17.8268 N   0  0  0  0  0  0  0  0  0  0  0  0
   -5.1686    0.2031  -18.0825 C   0  0  0  0  0  0  0  0  0  0  0  0
   -4.7263    0.5225  -19.3970 C   0  0  0  0  0  0  0  0  0  0  0  0
   -3.5975    1.3511  -19.6389 C   0  0  0  0  0  0  0  0  0  0  0  0
   -3.2119    1.6380  -20.9193 C   0  0  0  0  0  0  0  0  0  0  0  0
   -3.9329    1.1045  -22.0123 C   0  0  0  0  0  0  0  0  0  0  0  0
   -5.0240    0.3012  -21.8007 C   0  0  0  0  0  0  0  0  0  0  0  0
   -5.4554   -0.0049  -20.4850 C   0  0  0  0  0  0  0  0  0  0  0  0
   -5.5883   -0.0965  -22.6368 H   0  0  0  0  0  0  0  0  0  0  0  0
   -3.6291    1.3492  -23.0254 H   0  0  0  0  0  0  0  0  0  0  0  0
   -2.3614    2.2887  -21.1045 H   0  0  0  0  0  0  0  0  0  0  0  0
   -3.0685    1.7702  -18.7869 H   0  0  0  0  0  0  0  0  0  0  0  0
   -4.6236    0.6110  -17.2285 H   0  0  0  0  0  0  0  0  0  0  0  0
   -7.7582   -1.6712  -18.5962 H   0  0  0  0  0  0  0  0  0  0  0  0
   -7.3919   -3.5106  -21.3359 H   0  0  0  0  0  0  0  0  0  0  0  0
   -5.8584   -2.6957  -21.6661 H   0  0  0  0  0  0  0  0  0  0  0  0
   -6.3400   -2.5476  -23.9197 H   0  0  0  0  0  0  0  0  0  0  0  0
   -7.8959   -0.8289  -24.0861 H   0  0  0  0  0  0  0  0  0  0  0  0
   -8.8244   -2.2062  -24.6594 H   0  0  0  0  0  0  0  0  0  0  0  0
   -9.8467   -2.4445  -22.3754 H   0  0  0  0  0  0  0  0  0  0  0  0
  1  2  2  0
  2  3  1  0
  3  4  1  0
  4  5  2  0
  5  6  1  0
  6  7  2  0
  7  8  1  0
  7  9  1  0
  9 10  1  0
  9 11  2  0
 11 12  1  0
  6 13  1  0
  5 14  1  0
  3 15  1  0
 15 16  1  0
 16 17  1  0
 17 18  1  0
 16 19  1  0
 19 20  1  0
 20 21  1  0
 21 22  2  0
 22 23  1  0
 23 24  2  0
 24 25  1  0
 25 26  2  0
 26 27  1  0
 27 28  2  0
 28 29  1  0
 29 30  2  0
 29 31  1  0
 28 32  1  0
 27 33  1  0
 26 34  1  0
 24 35  1  0
 22 36  1  0
 19 37  1  0
 19 38  1  0
 16 39  1  6
 15 40  1  0
 15 41  1  0
  3 42  1  1
 20  2  1  0
 30 21  1  0
 11  4  1  0
 30 25  1  0
M  END
>  <cnnaffinities>  (20) 
[5.55725]

>  <score>  (20) 
5.55725

>  <index>  (20) 
19

>  <Smiles>  (20) 
O=C1[C@@](c2c(c(c(Cl)c(Cl)c2[H])[H])[H])(C([C@](O[H])(C(N1c1c(nc(c2c(c(c(c(c12)[H])[H])[H])[H])[H])[H])([H])[H])[H])([H])[H])[H]

>  <h>  (20) 
<NA>

>  <Training>  (20) 
True

>  <Success>  (20) 
True

>  <enamine_searched>  (20) 
False

>  <enamine_id>  (20) 
nan

$$$$

     RDKit          3D

 66 71  0  0  0  0  0  0  0  0999 V2000
   -7.4332    3.3520  -21.7627 C   0  0  0  0  0  0  0  0  0  0  0  0
   -8.3217    2.9029  -22.8182 N   0  0  0  0  0  0  0  0  0  0  0  0
   -7.7514    2.2208  -23.8370 C   0  0  0  0  0  0  0  0  0  0  0  0
   -6.5366    2.1228  -23.9536 O   0  0  0  0  0  0  0  0  0  0  0  0
   -8.7037    1.5952  -24.8625 C   0  0  0  0  0  0  0  0  0  0  0  0
   -9.4209    0.4345  -24.3683 N   0  0  0  0  0  0  0  0  0  0  0  0
   -8.6963   -0.8119  -24.2103 C   0  0  0  0  0  0  0  0  0  0  0  0
   -9.0740   -1.5328  -22.8904 C   0  0  2  0  0  0  0  0  0  0  0  0
   -8.5272   -0.7414  -21.6700 C   0  0  0  0  0  0  0  0  0  0  0  0
   -8.9835    0.2724  -21.1889 O   0  0  0  0  0  0  0  0  0  0  0  0
   -7.4022   -1.3839  -21.2017 N   0  0  0  0  0  0  0  0  0  0  0  0
   -6.6058   -0.8101  -20.1749 C   0  0  0  0  0  0  0  0  0  0  0  0
   -6.9107   -1.0408  -18.8579 C   0  0  0  0  0  0  0  0  0  0  0  0
   -6.2073   -0.5468  -17.8088 N   0  0  0  0  0  0  0  0  0  0  0  0
   -5.1686    0.2073  -18.0776 C   0  0  0  0  0  0  0  0  0  0  0  0
   -4.7288    0.5261  -19.3935 C   0  0  0  0  0  0  0  0  0  0  0  0
   -3.6019    1.3595  -19.6409 C   0  0  0  0  0  0  0  0  0  0  0  0
   -3.2174    1.6537  -20.9197 C   0  0  0  0  0  0  0  0  0  0  0  0
   -3.9410    1.1265  -22.0138 C   0  0  0  0  0  0  0  0  0  0  0  0
   -5.0337    0.3192  -21.8002 C   0  0  0  0  0  0  0  0  0  0  0  0
   -5.4643   -0.0002  -20.4840 C   0  0  0  0  0  0  0  0  0  0  0  0
   -5.5950   -0.0634  -22.6480 H   0  0  0  0  0  0  0  0  0  0  0  0
   -3.6516    1.3749  -23.0285 H   0  0  0  0  0  0  0  0  0  0  0  0
   -2.3682    2.3073  -21.0982 H   0  0  0  0  0  0  0  0  0  0  0  0
   -3.0752    1.7757  -18.7859 H   0  0  0  0  0  0  0  0  0  0  0  0
   -4.6207    0.6120  -17.2265 H   0  0  0  0  0  0  0  0  0  0  0  0
   -7.7599   -1.6681  -18.5993 H   0  0  0  0  0  0  0  0  0  0  0  0
   -7.0545   -2.5879  -21.9317 C   0  0  0  0  0  0  0  0  0  0  0  0
   -8.3246   -2.8956  -22.7526 C   0  0  2  0  0  0  0  0  0  0  0  0
   -8.0155   -3.6748  -24.0497 C   0  0  0  0  0  0  0  0  0  0  0  0
   -7.4721   -5.0635  -23.7803 C   0  0  0  0  0  0  0  0  0  0  0  0
   -8.3449   -6.1221  -23.5142 C   0  0  0  0  0  0  0  0  0  0  0  0
   -7.8611   -7.3989  -23.2366 C   0  0  0  0  0  0  0  0  0  0  0  0
   -6.4907   -7.6356  -23.1992 C   0  0  0  0  0  0  0  0  0  0  0  0
   -5.6084   -6.5926  -23.4675 C   0  0  0  0  0  0  0  0  0  0  0  0
   -6.0973   -5.3201  -23.7568 C   0  0  0  0  0  0  0  0  0  0  0  0
   -5.3979   -4.5103  -23.9644 H   0  0  0  0  0  0  0  0  0  0  0  0
   -4.5353   -6.7734  -23.4561 H   0  0  0  0  0  0  0  0  0  0  0  0
   -6.1164   -8.6301  -22.9670 H   0  0  0  0  0  0  0  0  0  0  0  0
   -8.5531   -8.2191  -23.0555 H   0  0  0  0  0  0  0  0  0  0  0  0
   -9.4184   -5.9317  -23.5267 H   0  0  0  0  0  0  0  0  0  0  0  0
   -8.9324   -3.7526  -24.6506 H   0  0  0  0  0  0  0  0  0  0  0  0
   -7.2880   -3.1140  -24.6525 H   0  0  0  0  0  0  0  0  0  0  0  0
   -8.9698   -3.5376  -22.1471 H   0  0  0  0  0  0  0  0  0  0  0  0
   -6.7927   -3.4030  -21.2458 H   0  0  0  0  0  0  0  0  0  0  0  0
   -6.1763   -2.4304  -22.5812 H   0  0  0  0  0  0  0  0  0  0  0  0
  -10.5893   -1.5948  -22.8136 C   0  0  0  0  0  0  0  0  0  0  0  0
  -11.2172   -2.4886  -21.9374 C   0  0  0  0  0  0  0  0  0  0  0  0
  -12.5960   -2.5097  -21.8443 C   0  0  0  0  0  0  0  0  0  0  0  0
  -13.3778   -3.5960  -20.7369 Cl  0  0  0  0  0  0  0  0  0  0  0  0
  -13.3936   -1.6581  -22.6056 C   0  0  0  0  0  0  0  0  0  0  0  0
  -12.7793   -0.7342  -23.4248 C   0  0  0  0  0  0  0  0  0  0  0  0
  -11.3895   -0.6724  -23.5030 C   0  0  0  0  0  0  0  0  0  0  0  0
  -10.7839    0.4695  -24.2648 C   0  0  0  0  0  0  0  0  0  0  0  0
  -11.4655    1.3746  -24.7237 O   0  0  0  0  0  0  0  0  0  0  0  0
  -13.3475   -0.0036  -23.9892 H   0  0  0  0  0  0  0  0  0  0  0  0
  -14.4720   -1.7069  -22.5109 H   0  0  0  0  0  0  0  0  0  0  0  0
  -10.6407   -3.1520  -21.3021 H   0  0  0  0  0  0  0  0  0  0  0  0
   -8.8986   -1.4862  -25.0594 H   0  0  0  0  0  0  0  0  0  0  0  0
   -7.6318   -0.5602  -24.2014 H   0  0  0  0  0  0  0  0  0  0  0  0
   -9.4781    2.2969  -25.1875 H   0  0  0  0  0  0  0  0  0  0  0  0
   -8.0646    1.3320  -25.7132 H   0  0  0  0  0  0  0  0  0  0  0  0
   -9.3178    2.8112  -22.6542 H   0  0  0  0  0  0  0  0  0  0  0  0
   -6.7571    4.1356  -22.1279 H   0  0  0  0  0  0  0  0  0  0  0  0
   -8.0296    3.7724  -20.9553 H   0  0  0  0  0  0  0  0  0  0  0  0
   -6.8195    2.5017  -21.4162 H   0  0  0  0  0  0  0  0  0  0  0  0
  1  2  1  0
  2  3  1  0
  3  4  2  0
  3  5  1  0
  5  6  1  0
  6  7  1  0
  8  7  1  6
  8  9  1  0
  9 10  2  0
  9 11  1  0
 11 12  1  0
 12 13  2  0
 13 14  1  0
 14 15  2  0
 15 16  1  0
 16 17  2  0
 17 18  1  0
 18 19  2  0
 19 20  1  0
 20 21  2  0
 20 22  1  0
 19 23  1  0
 18 24  1  0
 17 25  1  0
 15 26  1  0
 13 27  1  0
 11 28  1  0
 28 29  1  0
 29 30  1  0
 30 31  1  0
 31 32  2  0
 32 33  1  0
 33 34  2  0
 34 35  1  0
 35 36  2  0
 36 37  1  0
 35 38  1  0
 34 39  1  0
 33 40  1  0
 32 41  1  0
 30 42  1  0
 30 43  1  0
 29 44  1  1
 28 45  1  0
 28 46  1  0
  8 47  1  0
 47 48  2  0
 48 49  1  0
 49 50  1  0
 49 51  2  0
 51 52  1  0
 52 53  2  0
 53 54  1  0
 54 55  2  0
 52 56  1  0
 51 57  1  0
 48 58  1  0
  7 59  1  0
  7 60  1  0
  5 61  1  0
  5 62  1  0
  2 63  1  0
  1 64  1  0
  1 65  1  0
  1 66  1  0
 54  6  1  0
 29  8  1  0
 36 31  1  0
 53 47  1  0
 21 12  1  0
 21 16  1  0
M  END
>  <cnnaffinities>  (21) 
[6.69693, 6.72354]

>  <score>  (21) 
6.69693

>  <index>  (21) 
20

>  <Smiles>  (21) 
C(N(C(=O)C(N1C([C@@]2(C(=O)N(c3c(nc(c4c(c(c(c(c34)[H])[H])[H])[H])[H])[H])C([C@@]2(C(c2c(c(c(c(c2[H])[H])[H])[H])[H])([H])[H])[H])([H])[H])c2c(c(Cl)c(c(c2C1=O)[H])[H])[H])([H])[H])([H])[H])[H])([H])([H])[H]

>  <h>  (21) 
<NA>

>  <Training>  (21) 
True

>  <Success>  (21) 
True

>  <enamine_searched>  (21) 
False

>  <enamine_id>  (21) 
nan

$$$$

     RDKit          3D

 63 68  0  0  0  0  0  0  0  0999 V2000
   -7.5595   -3.7004  -23.5089 C   0  0  0  0  0  0  0  0  0  0  0  0
   -8.4067   -2.9067  -22.5121 C   0  0  1  0  0  0  0  0  0  0  0  0
   -7.7075   -2.7054  -21.1553 C   0  0  0  0  0  0  0  0  0  0  0  0
   -7.4469   -1.2894  -21.0887 N   0  0  0  0  0  0  0  0  0  0  0  0
   -6.6298   -0.7350  -20.0800 C   0  0  0  0  0  0  0  0  0  0  0  0
   -6.8894   -1.0149  -18.7619 C   0  0  0  0  0  0  0  0  0  0  0  0
   -6.1847   -0.5222  -17.7163 N   0  0  0  0  0  0  0  0  0  0  0  0
   -5.1597    0.2494  -17.9917 C   0  0  0  0  0  0  0  0  0  0  0  0
   -4.7425    0.5704  -19.3159 C   0  0  0  0  0  0  0  0  0  0  0  0
   -3.5964    1.3747  -19.5612 C   0  0  0  0  0  0  0  0  0  0  0  0
   -3.1881    1.6392  -20.8411 C   0  0  0  0  0  0  0  0  0  0  0  0
   -3.9094    1.1080  -21.9349 C   0  0  0  0  0  0  0  0  0  0  0  0
   -5.0224    0.3278  -21.7285 C   0  0  0  0  0  0  0  0  0  0  0  0
   -5.4834    0.0559  -20.4058 C   0  0  0  0  0  0  0  0  0  0  0  0
   -5.5565   -0.0712  -22.5849 H   0  0  0  0  0  0  0  0  0  0  0  0
   -3.5894    1.3216  -22.9525 H   0  0  0  0  0  0  0  0  0  0  0  0
   -2.3106    2.2561  -21.0205 H   0  0  0  0  0  0  0  0  0  0  0  0
   -3.0622    1.7805  -18.7070 H   0  0  0  0  0  0  0  0  0  0  0  0
   -4.5900    0.6500  -17.1504 H   0  0  0  0  0  0  0  0  0  0  0  0
   -7.7295   -1.6574  -18.5003 H   0  0  0  0  0  0  0  0  0  0  0  0
   -8.2379   -0.5447  -21.9266 C   0  0  0  0  0  0  0  0  0  0  0  0
   -8.3805    0.6589  -21.8574 O   0  0  0  0  0  0  0  0  0  0  0  0
   -8.8922   -1.4938  -22.9826 C   0  0  1  0  0  0  0  0  0  0  0  0
   -8.3248   -1.0393  -24.3833 C   0  0  0  0  0  0  0  0  0  0  0  0
   -9.0267    0.1204  -24.9288 N   0  0  0  0  0  0  0  0  0  0  0  0
   -8.2452    1.1215  -25.6316 C   0  0  0  0  0  0  0  0  0  0  0  0
   -7.2807    1.8232  -24.6693 C   0  0  0  0  0  0  0  0  0  0  0  0
   -6.1034    1.4875  -24.5828 O   0  0  0  0  0  0  0  0  0  0  0  0
   -7.8427    2.7884  -23.9020 N   0  0  0  0  0  0  0  0  0  0  0  0
   -7.0828    3.4913  -22.8788 C   0  0  0  0  0  0  0  0  0  0  0  0
   -6.3164    4.6724  -23.4400 C   0  0  0  0  0  0  0  0  0  0  0  0
   -4.9835    4.4281  -24.0870 C   0  0  0  0  0  0  0  0  0  0  0  0
   -5.0587    5.1342  -22.7642 C   0  0  0  0  0  0  0  0  0  0  0  0
   -4.8568    6.2014  -22.7349 H   0  0  0  0  0  0  0  0  0  0  0  0
   -4.7326    4.5932  -21.8774 H   0  0  0  0  0  0  0  0  0  0  0  0
   -4.7180    4.9979  -24.9733 H   0  0  0  0  0  0  0  0  0  0  0  0
   -4.6338    3.3989  -24.0887 H   0  0  0  0  0  0  0  0  0  0  0  0
   -6.9429    5.4421  -23.8890 H   0  0  0  0  0  0  0  0  0  0  0  0
   -7.7844    3.8108  -22.1009 H   0  0  0  0  0  0  0  0  0  0  0  0
   -6.3859    2.7810  -22.4152 H   0  0  0  0  0  0  0  0  0  0  0  0
   -8.8485    2.8634  -23.8752 H   0  0  0  0  0  0  0  0  0  0  0  0
   -8.9588    1.8226  -26.0729 H   0  0  0  0  0  0  0  0  0  0  0  0
   -7.6520    0.6503  -26.4242 H   0  0  0  0  0  0  0  0  0  0  0  0
  -10.3746    0.3421  -24.7499 C   0  0  0  0  0  0  0  0  0  0  0  0
  -10.9249    1.3270  -25.2338 O   0  0  0  0  0  0  0  0  0  0  0  0
  -11.1037   -0.6475  -23.9084 C   0  0  0  0  0  0  0  0  0  0  0  0
  -12.5037   -0.6341  -23.7750 C   0  0  0  0  0  0  0  0  0  0  0  0
  -12.6883   -1.5278  -22.6560 C   0  0  0  0  0  0  0  0  0  0  0  0
  -12.6144   -1.7376  -22.6745 C   0  0  0  0  0  0  0  0  0  0  0  0
  -12.0914   -3.8278  -23.6419 F   0  0  0  0  0  0  0  0  0  0  0  0
  -11.2789   -2.0681  -22.0979 C   0  0  0  0  0  0  0  0  0  0  0  0
  -10.4332   -1.4313  -23.0061 C   0  0  0  0  0  0  0  0  0  0  0  0
  -11.9630   -3.1581  -22.9500 H   0  0  0  0  0  0  0  0  0  0  0  0
  -13.5862   -1.9322  -22.0436 H   0  0  0  0  0  0  0  0  0  0  0  0
  -12.9790    0.1704  -23.2893 H   0  0  0  0  0  0  0  0  0  0  0  0
   -7.2707   -0.7643  -24.2818 H   0  0  0  0  0  0  0  0  0  0  0  0
   -8.3683   -1.8615  -25.1076 H   0  0  0  0  0  0  0  0  0  0  0  0
   -6.7677   -3.2599  -21.0634 H   0  0  0  0  0  0  0  0  0  0  0  0
   -8.3717   -3.0124  -20.3359 H   0  0  0  0  0  0  0  0  0  0  0  0
   -9.3061   -3.4870  -22.2981 H   0  0  0  0  0  0  0  0  0  0  0  0
   -8.1315   -3.9087  -24.4196 H   0  0  0  0  0  0  0  0  0  0  0  0
   -7.2528   -4.6641  -23.0854 H   0  0  0  0  0  0  0  0  0  0  0  0
   -6.6580   -3.1478  -23.7954 H   0  0  0  0  0  0  0  0  0  0  0  0
  1  2  1  0
  2  3  1  0
  3  4  1  0
  4  5  1  0
  5  6  2  0
  6  7  1  0
  7  8  2  0
  8  9  1  0
  9 10  2  0
 10 11  1  0
 11 12  2  0
 12 13  1  0
 13 14  2  0
 13 15  1  0
 12 16  1  0
 11 17  1  0
 10 18  1  0
  8 19  1  0
  6 20  1  0
  4 21  1  0
 21 22  2  0
 21 23  1  0
 23 24  1  6
 24 25  1  0
 25 26  1  0
 26 27  1  0
 27 28  2  0
 27 29  1  0
 29 30  1  0
 30 31  1  0
 31 32  1  0
 32 33  1  0
 33 34  1  0
 33 35  1  0
 32 36  1  0
 32 37  1  0
 31 38  1  0
 30 39  1  0
 30 40  1  0
 29 41  1  0
 26 42  1  0
 26 43  1  0
 25 44  1  0
 44 45  2  0
 44 46  1  0
 46 47  2  0
 47 48  1  0
 48 49  2  0
 49 50  1  0
 49 51  1  0
 51 52  2  0
 51 53  1  0
 48 54  1  0
 47 55  1  0
 24 56  1  0
 24 57  1  0
  3 58  1  0
  3 59  1  0
  2 60  1  1
  1 61  1  0
  1 62  1  0
  1 63  1  0
 23  2  1  0
 33 31  1  0
 52 46  1  0
 14  5  1  0
 52 23  1  0
 14  9  1  0
M  END
>  <cnnaffinities>  (22) 
[6.50388]

>  <score>  (22) 
6.50388

>  <index>  (22) 
21

>  <Smiles>  (22) 
C([C@]1(C(N(c2c(nc(c3c(c(c(c(c23)[H])[H])[H])[H])[H])[H])C(=O)[C@]21C(N(C(C(=O)N(C(C1(C(C1([H])[H])([H])[H])[H])([H])[H])[H])([H])[H])C(=O)c1c(c(c(F)c(c21)[H])[H])[H])([H])[H])([H])[H])[H])([H])([H])[H]

>  <h>  (22) 
<NA>

>  <Training>  (22) 
True

>  <Success>  (22) 
True

>  <enamine_searched>  (22) 
False

>  <enamine_id>  (22) 
nan

$$$$

     RDKit          3D

 68 73  0  0  0  0  0  0  0  0999 V2000
  -14.3961   -1.2441  -23.8974 C   0  0  0  0  0  0  0  0  0  0  0  0
  -13.7157   -2.4354  -23.4272 N   0  0  0  0  0  0  0  0  0  0  0  0
  -13.3703   -2.4890  -22.1145 C   0  0  0  0  0  0  0  0  0  0  0  0
  -13.6562   -1.5890  -21.3338 O   0  0  0  0  0  0  0  0  0  0  0  0
  -12.6130   -3.7515  -21.7068 C   0  0  0  0  0  0  0  0  0  0  0  0
  -11.2567   -3.8084  -22.2366 N   0  0  0  0  0  0  0  0  0  0  0  0
  -10.1389   -3.2564  -21.4725 C   0  0  0  0  0  0  0  0  0  0  0  0
   -8.8936   -2.8587  -22.3179 C   0  0  2  0  0  0  0  0  0  0  0  0
   -7.7435   -2.6643  -21.3287 C   0  0  0  0  0  0  0  0  0  0  0  0
   -7.2030   -3.5401  -20.6827 O   0  0  0  0  0  0  0  0  0  0  0  0
   -7.4263   -1.3224  -21.2396 N   0  0  0  0  0  0  0  0  0  0  0  0
   -6.6014   -0.8494  -20.1963 C   0  0  0  0  0  0  0  0  0  0  0  0
   -6.9052   -1.1260  -18.8881 C   0  0  0  0  0  0  0  0  0  0  0  0
   -6.2448   -0.5963  -17.8294 N   0  0  0  0  0  0  0  0  0  0  0  0
   -5.2292    0.1959  -18.0825 C   0  0  0  0  0  0  0  0  0  0  0  0
   -4.7704    0.5128  -19.3949 C   0  0  0  0  0  0  0  0  0  0  0  0
   -3.6397    1.3391  -19.6318 C   0  0  0  0  0  0  0  0  0  0  0  0
   -3.2345    1.6062  -20.9114 C   0  0  0  0  0  0  0  0  0  0  0  0
   -3.9302    1.0580  -22.0136 C   0  0  0  0  0  0  0  0  0  0  0  0
   -5.0244    0.2527  -21.8113 C   0  0  0  0  0  0  0  0  0  0  0  0
   -5.4730   -0.0263  -20.4940 C   0  0  0  0  0  0  0  0  0  0  0  0
   -5.5523   -0.1896  -22.6506 H   0  0  0  0  0  0  0  0  0  0  0  0
   -3.6008    1.2798  -23.0243 H   0  0  0  0  0  0  0  0  0  0  0  0
   -2.3751    2.2467  -21.0907 H   0  0  0  0  0  0  0  0  0  0  0  0
   -3.1154    1.7594  -18.7771 H   0  0  0  0  0  0  0  0  0  0  0  0
   -4.7068    0.6274  -17.2262 H   0  0  0  0  0  0  0  0  0  0  0  0
   -7.7301   -1.7921  -18.6450 H   0  0  0  0  0  0  0  0  0  0  0  0
   -8.3919   -0.4672  -21.9238 C   0  0  0  0  0  0  0  0  0  0  0  0
   -8.9981   -1.4345  -22.9514 C   0  0  2  0  0  0  0  0  0  0  0  0
  -10.4142   -1.1090  -23.4388 C   0  0  0  0  0  0  0  0  0  0  0  0
  -10.5184    0.0392  -24.3058 N   0  0  0  0  0  0  0  0  0  0  0  0
  -10.6087    1.3122  -23.7469 C   0  0  0  0  0  0  0  0  0  0  0  0
  -11.4903    1.5995  -22.6962 C   0  0  0  0  0  0  0  0  0  0  0  0
  -11.6540    2.9171  -22.2774 C   0  0  0  0  0  0  0  0  0  0  0  0
  -10.8952    3.9399  -22.8405 C   0  0  0  0  0  0  0  0  0  0  0  0
   -9.9741    3.6383  -23.8373 C   0  0  0  0  0  0  0  0  0  0  0  0
   -9.8431    2.3423  -24.3004 C   0  0  0  0  0  0  0  0  0  0  0  0
   -9.1309    2.1002  -25.0863 H   0  0  0  0  0  0  0  0  0  0  0  0
   -9.3626    4.4195  -24.2776 H   0  0  0  0  0  0  0  0  0  0  0  0
  -11.0128    4.9604  -22.4901 H   0  0  0  0  0  0  0  0  0  0  0  0
  -12.3653    3.1511  -21.4857 H   0  0  0  0  0  0  0  0  0  0  0  0
  -12.0478    0.7993  -22.2162 H   0  0  0  0  0  0  0  0  0  0  0  0
   -9.8561    0.0022  -25.0679 H   0  0  0  0  0  0  0  0  0  0  0  0
  -11.0681   -0.9520  -22.5797 H   0  0  0  0  0  0  0  0  0  0  0  0
  -10.7817   -1.9859  -23.9825 H   0  0  0  0  0  0  0  0  0  0  0  0
   -8.3222   -1.4349  -23.8187 H   0  0  0  0  0  0  0  0  0  0  0  0
   -7.9023    0.4023  -22.3734 H   0  0  0  0  0  0  0  0  0  0  0  0
   -9.1441   -0.0754  -21.2211 H   0  0  0  0  0  0  0  0  0  0  0  0
   -8.6193   -3.9418  -23.3393 C   0  0  0  0  0  0  0  0  0  0  0  0
   -7.3384   -4.1512  -23.8699 C   0  0  0  0  0  0  0  0  0  0  0  0
   -7.1532   -5.1294  -24.8344 C   0  0  0  0  0  0  0  0  0  0  0  0
   -5.5836   -5.3468  -25.5454 Cl  0  0  0  0  0  0  0  0  0  0  0  0
   -8.2013   -5.9485  -25.2547 C   0  0  0  0  0  0  0  0  0  0  0  0
   -9.4684   -5.7232  -24.7516 C   0  0  0  0  0  0  0  0  0  0  0  0
   -9.6835   -4.6984  -23.8386 C   0  0  0  0  0  0  0  0  0  0  0  0
  -11.0892   -4.4094  -23.4395 C   0  0  0  0  0  0  0  0  0  0  0  0
  -12.0495   -4.6859  -24.1652 O   0  0  0  0  0  0  0  0  0  0  0  0
  -10.3259   -6.3194  -25.0511 H   0  0  0  0  0  0  0  0  0  0  0  0
   -8.0286   -6.7507  -25.9622 H   0  0  0  0  0  0  0  0  0  0  0  0
   -6.4891   -3.5836  -23.5010 H   0  0  0  0  0  0  0  0  0  0  0  0
   -9.7951   -3.9663  -20.7124 H   0  0  0  0  0  0  0  0  0  0  0  0
  -10.4763   -2.3586  -20.9431 H   0  0  0  0  0  0  0  0  0  0  0  0
  -12.5836   -3.8333  -20.6223 H   0  0  0  0  0  0  0  0  0  0  0  0
  -13.1518   -4.6072  -22.1264 H   0  0  0  0  0  0  0  0  0  0  0  0
  -13.3779   -3.1303  -24.0874 H   0  0  0  0  0  0  0  0  0  0  0  0
  -13.7266   -0.3661  -23.8842 H   0  0  0  0  0  0  0  0  0  0  0  0
  -15.2386   -1.0213  -23.2317 H   0  0  0  0  0  0  0  0  0  0  0  0
  -14.7623   -1.4266  -24.9134 H   0  0  0  0  0  0  0  0  0  0  0  0
  1  2  1  0
  2  3  1  0
  3  4  2  0
  3  5  1  0
  5  6  1  0
  6  7  1  0
  8  7  1  1
  8  9  1  0
  9 10  2  0
  9 11  1  0
 11 12  1  0
 12 13  2  0
 13 14  1  0
 14 15  2  0
 15 16  1  0
 16 17  2  0
 17 18  1  0
 18 19  2  0
 19 20  1  0
 20 21  2  0
 20 22  1  0
 19 23  1  0
 18 24  1  0
 17 25  1  0
 15 26  1  0
 13 27  1  0
 11 28  1  0
 28 29  1  0
 29 30  1  0
 30 31  1  0
 31 32  1  0
 32 33  2  0
 33 34  1  0
 34 35  2  0
 35 36  1  0
 36 37  2  0
 37 38  1  0
 36 39  1  0
 35 40  1  0
 34 41  1  0
 33 42  1  0
 31 43  1  0
 30 44  1  0
 30 45  1  0
 29 46  1  6
 28 47  1  0
 28 48  1  0
  8 49  1  0
 49 50  2  0
 50 51  1  0
 51 52  1  0
 51 53  2  0
 53 54  1  0
 54 55  2  0
 55 56  1  0
 56 57  2  0
 54 58  1  0
 53 59  1  0
 50 60  1  0
  7 61  1  0
  7 62  1  0
  5 63  1  0
  5 64  1  0
  2 65  1  0
  1 66  1  0
  1 67  1  0
  1 68  1  0
 56  6  1  0
 29  8  1  0
 37 32  1  0
 55 49  1  0
 21 12  1  0
 21 16  1  0
M  END
>  <cnnaffinities>  (23) 
[6.7094, 6.30673, 7.00373]

>  <score>  (23) 
6.7094

>  <index>  (23) 
23

>  <Smiles>  (23) 
C(N(C(=O)C(N1C([C@@]2(C(=O)N(c3c(nc(c4c(c(c(c(c34)[H])[H])[H])[H])[H])[H])C([C@@]2(C(N(c2c(c(c(c(c2[H])[H])[H])[H])[H])[H])([H])[H])[H])([H])[H])c2c(c(Cl)c(c(c2C1=O)[H])[H])[H])([H])[H])([H])[H])[H])([H])([H])[H]

>  <h>  (23) 
<NA>

>  <Training>  (23) 
True

>  <Success>  (23) 
True

>  <enamine_searched>  (23) 
False

>  <enamine_id>  (23) 
nan

$$$$

     RDKit          3D

 65 70  0  0  0  0  0  0  0  0999 V2000
   -5.9611   -7.4804  -25.5170 O   0  0  0  0  0  0  0  0  0  0  0  0
   -5.8751   -7.1132  -24.3555 C   0  0  0  0  0  0  0  0  0  0  0  0
   -7.0451   -6.4987  -23.5952 C   0  0  0  0  0  0  0  0  0  0  0  0
   -7.0773   -5.0220  -23.7558 N   0  0  1  0  0  4  0  0  0  0  0  0
   -7.2328   -4.7157  -25.2338 C   0  0  0  0  0  0  0  0  0  0  0  0
   -7.1909   -3.2422  -25.5168 C   0  0  0  0  0  0  0  0  0  0  0  0
   -6.8354   -2.7614  -26.7771 C   0  0  0  0  0  0  0  0  0  0  0  0
   -6.7774   -1.3999  -27.0406 C   0  0  0  0  0  0  0  0  0  0  0  0
   -7.0810   -0.5124  -26.0125 C   0  0  0  0  0  0  0  0  0  0  0  0
   -6.9881    1.2037  -26.3048 Cl  0  0  0  0  0  0  0  0  0  0  0  0
   -7.4668   -0.9712  -24.7617 C   0  0  0  0  0  0  0  0  0  0  0  0
   -7.5593   -2.3469  -24.5151 C   0  0  0  0  0  0  0  0  0  0  0  0
   -7.9916   -2.8326  -23.1432 C   0  0  2  0  0  0  0  0  0  0  0  0
   -9.1965   -2.0748  -22.5779 C   0  0  0  0  0  0  0  0  0  0  0  0
   -8.6653   -1.1572  -21.4735 C   0  0  0  0  0  0  0  0  0  0  0  0
   -7.2797   -1.5587  -21.2885 N   0  0  0  0  0  0  0  0  0  0  0  0
   -6.5127   -0.9607  -20.2597 C   0  0  0  0  0  0  0  0  0  0  0  0
   -6.9100   -1.1015  -18.9518 C   0  0  0  0  0  0  0  0  0  0  0  0
   -6.2707   -0.5680  -17.8833 N   0  0  0  0  0  0  0  0  0  0  0  0
   -5.2198    0.1753  -18.1354 C   0  0  0  0  0  0  0  0  0  0  0  0
   -4.7415    0.4610  -19.4446 C   0  0  0  0  0  0  0  0  0  0  0  0
   -3.6334    1.3217  -19.6459 C   0  0  0  0  0  0  0  0  0  0  0  0
   -3.2355    1.6480  -20.9109 C   0  0  0  0  0  0  0  0  0  0  0  0
   -3.9302    1.1379  -22.0306 C   0  0  0  0  0  0  0  0  0  0  0  0
   -4.9952    0.2857  -21.8668 C   0  0  0  0  0  0  0  0  0  0  0  0
   -5.4151   -0.0913  -20.5575 C   0  0  0  0  0  0  0  0  0  0  0  0
   -5.5306   -0.0822  -22.7407 H   0  0  0  0  0  0  0  0  0  0  0  0
   -3.6212    1.4379  -23.0264 H   0  0  0  0  0  0  0  0  0  0  0  0
   -2.3979    2.3217  -21.0603 H   0  0  0  0  0  0  0  0  0  0  0  0
   -3.1374    1.7325  -18.7703 H   0  0  0  0  0  0  0  0  0  0  0  0
   -4.6960    0.6086  -17.2840 H   0  0  0  0  0  0  0  0  0  0  0  0
   -7.7940   -1.6950  -18.7257 H   0  0  0  0  0  0  0  0  0  0  0  0
   -6.8664   -2.5448  -22.1469 C   0  0  0  0  0  0  0  0  0  0  0  0
   -5.8139   -3.1718  -22.1409 O   0  0  0  0  0  0  0  0  0  0  0  0
   -9.2172   -1.3251  -20.5539 H   0  0  0  0  0  0  0  0  0  0  0  0
   -8.7315   -0.0894  -21.7227 H   0  0  0  0  0  0  0  0  0  0  0  0
   -9.8961   -2.7963  -22.1457 H   0  0  0  0  0  0  0  0  0  0  0  0
   -9.7376   -1.5252  -23.3511 H   0  0  0  0  0  0  0  0  0  0  0  0
   -8.2156   -4.3496  -23.0609 C   0  0  0  0  0  0  0  0  0  0  0  0
   -8.2314   -4.6385  -22.0069 H   0  0  0  0  0  0  0  0  0  0  0  0
   -9.1782   -4.6375  -23.5080 H   0  0  0  0  0  0  0  0  0  0  0  0
   -7.6928   -0.2465  -23.9826 H   0  0  0  0  0  0  0  0  0  0  0  0
   -6.4910   -1.0308  -28.0216 H   0  0  0  0  0  0  0  0  0  0  0  0
   -6.5919   -3.4598  -27.5746 H   0  0  0  0  0  0  0  0  0  0  0  0
   -6.4666   -5.2586  -25.7790 H   0  0  0  0  0  0  0  0  0  0  0  0
   -8.2037   -5.1329  -25.5398 H   0  0  0  0  0  0  0  0  0  0  0  0
   -6.2106   -4.5772  -23.3641 H   0  0  0  0  0  0  0  0  0  0  0  0
   -6.9846   -6.7802  -22.5439 H   0  0  0  0  0  0  0  0  0  0  0  0
   -7.9704   -6.9093  -24.0125 H   0  0  0  0  0  0  0  0  0  0  0  0
   -4.7099   -7.1999  -23.6615 N   0  0  0  0  0  0  0  0  0  0  0  0
   -3.6234   -7.9541  -24.2567 C   0  0  0  0  0  0  0  0  0  0  0  0
   -2.3334   -7.7685  -23.4801 C   0  0  1  0  0  0  0  0  0  0  0  0
   -1.0469   -8.2823  -24.1811 C   0  0  0  0  0  0  0  0  0  0  0  0
   -0.5249   -6.8437  -24.2767 C   0  0  1  0  0  0  0  0  0  0  0  0
   -0.4832   -6.3936  -25.5893 F   0  0  0  0  0  0  0  0  0  0  0  0
   -1.7602   -6.3297  -23.5319 C   0  0  0  0  0  0  0  0  0  0  0  0
   -1.5593   -5.8828  -22.5507 H   0  0  0  0  0  0  0  0  0  0  0  0
   -2.3358   -5.6547  -24.1785 H   0  0  0  0  0  0  0  0  0  0  0  0
    0.4513   -6.6514  -23.8189 H   0  0  0  0  0  0  0  0  0  0  0  0
   -1.1866   -8.7370  -25.1678 H   0  0  0  0  0  0  0  0  0  0  0  0
   -0.4276   -8.9378  -23.5612 H   0  0  0  0  0  0  0  0  0  0  0  0
   -2.4295   -8.1757  -22.4614 H   0  0  0  0  0  0  0  0  0  0  0  0
   -3.5399   -7.6001  -25.2941 H   0  0  0  0  0  0  0  0  0  0  0  0
   -3.8820   -9.0197  -24.3079 H   0  0  0  0  0  0  0  0  0  0  0  0
   -4.6812   -6.9555  -22.6854 H   0  0  0  0  0  0  0  0  0  0  0  0
  1  2  2  0
  2  3  1  0
  3  4  1  0
  4  5  1  0
  5  6  1  0
  6  7  2  0
  7  8  1  0
  8  9  2  0
  9 10  1  0
  9 11  1  0
 11 12  2  0
 12 13  1  0
 13 14  1  1
 14 15  1  0
 15 16  1  0
 16 17  1  0
 17 18  2  0
 18 19  1  0
 19 20  2  0
 20 21  1  0
 21 22  2  0
 22 23  1  0
 23 24  2  0
 24 25  1  0
 25 26  2  0
 25 27  1  0
 24 28  1  0
 23 29  1  0
 22 30  1  0
 20 31  1  0
 18 32  1  0
 16 33  1  0
 33 34  2  0
 15 35  1  0
 15 36  1  0
 14 37  1  0
 14 38  1  0
 13 39  1  0
 39 40  1  0
 39 41  1  0
 11 42  1  0
  8 43  1  0
  7 44  1  0
  5 45  1  0
  5 46  1  0
  4 47  1  1
  3 48  1  0
  3 49  1  0
  2 50  1  0
 50 51  1  0
 51 52  1  0
 52 53  1  0
 53 54  1  0
 54 55  1  0
 54 56  1  0
 56 57  1  0
 56 58  1  0
 54 59  1  1
 53 60  1  0
 53 61  1  0
 52 62  1  1
 51 63  1  0
 51 64  1  0
 50 65  1  0
 39  4  1  0
 56 52  1  0
 12  6  1  0
 33 13  1  0
 26 17  1  0
 26 21  1  0
M  CHG  1   4   1
M  END
>  <cnnaffinities>  (24) 
[6.64065]

>  <score>  (24) 
6.64065

>  <index>  (24) 
24

>  <Smiles>  (24) 
O=C(C([N@+]1(C(c2c(c(c(Cl)c(c2[C@@]2(C(C(N(c3c(nc(c4c(c(c(c(c34)[H])[H])[H])[H])[H])[H])C2=O)([H])[H])([H])[H])C1([H])[H])[H])[H])[H])([H])[H])[H])([H])[H])N(C([C@]1(C([C@@](F)(C1([H])[H])[H])([H])[H])[H])([H])[H])[H]

>  <h>  (24) 
<NA>

>  <Training>  (24) 
True

>  <Success>  (24) 
True

>  <enamine_searched>  (24) 
False

>  <enamine_id>  (24) 
nan

$$$$

     RDKit          3D

 70 75  0  0  0  0  0  0  0  0999 V2000
   -5.7601   -7.7332  -25.5663 O   0  0  0  0  0  0  0  0  0  0  0  0
   -5.6603   -7.1561  -24.4968 C   0  0  0  0  0  0  0  0  0  0  0  0
   -6.8455   -6.4192  -23.8638 C   0  0  0  0  0  0  0  0  0  0  0  0
   -6.7807   -4.9104  -23.9672 N   0  0  1  0  0  4  0  0  0  0  0  0
   -6.7604   -4.5235  -25.4489 C   0  0  0  0  0  0  0  0  0  0  0  0
   -6.7698   -3.0275  -25.6391 C   0  0  0  0  0  0  0  0  0  0  0  0
   -6.2826   -2.4794  -26.8283 C   0  0  0  0  0  0  0  0  0  0  0  0
   -6.2992   -1.1088  -27.0513 C   0  0  0  0  0  0  0  0  0  0  0  0
   -6.8114   -0.2785  -26.0610 C   0  0  0  0  0  0  0  0  0  0  0  0
   -6.8469    1.4461  -26.3161 Cl  0  0  0  0  0  0  0  0  0  0  0  0
   -7.3008   -0.8062  -24.8744 C   0  0  0  0  0  0  0  0  0  0  0  0
   -7.2966   -2.1856  -24.6585 C   0  0  0  0  0  0  0  0  0  0  0  0
   -7.8099   -2.6986  -23.3231 C   0  0  2  0  0  0  0  0  0  0  0  0
   -6.8318   -2.3290  -22.2119 C   0  0  0  0  0  0  0  0  0  0  0  0
   -5.7176   -2.8308  -22.2027 O   0  0  0  0  0  0  0  0  0  0  0  0
   -7.3094   -1.4346  -21.2708 N   0  0  0  0  0  0  0  0  0  0  0  0
   -6.5568   -0.8585  -20.2150 C   0  0  0  0  0  0  0  0  0  0  0  0
   -6.8984   -1.0598  -18.8958 C   0  0  0  0  0  0  0  0  0  0  0  0
   -6.2190   -0.5525  -17.8359 N   0  0  0  0  0  0  0  0  0  0  0  0
   -5.1764    0.2000  -18.0890 C   0  0  0  0  0  0  0  0  0  0  0  0
   -4.7332    0.5191  -19.4024 C   0  0  0  0  0  0  0  0  0  0  0  0
   -3.6127    1.3632  -19.6282 C   0  0  0  0  0  0  0  0  0  0  0  0
   -3.2405    1.6900  -20.9031 C   0  0  0  0  0  0  0  0  0  0  0  0
   -3.9747    1.1999  -22.0084 C   0  0  0  0  0  0  0  0  0  0  0  0
   -5.0575    0.3786  -21.8164 C   0  0  0  0  0  0  0  0  0  0  0  0
   -5.4488   -0.0024  -20.5010 C   0  0  0  0  0  0  0  0  0  0  0  0
   -5.6227    0.0106  -22.6666 H   0  0  0  0  0  0  0  0  0  0  0  0
   -3.6798    1.4735  -23.0174 H   0  0  0  0  0  0  0  0  0  0  0  0
   -2.3901    2.3450  -21.0725 H   0  0  0  0  0  0  0  0  0  0  0  0
   -3.0854    1.7563  -18.7621 H   0  0  0  0  0  0  0  0  0  0  0  0
   -4.6297    0.5973  -17.2331 H   0  0  0  0  0  0  0  0  0  0  0  0
   -7.7548   -1.6768  -18.6242 H   0  0  0  0  0  0  0  0  0  0  0  0
   -8.3142   -1.3778  -21.1684 H   0  0  0  0  0  0  0  0  0  0  0  0
   -7.9844   -4.2204  -23.3112 C   0  0  0  0  0  0  0  0  0  0  0  0
   -8.8820   -4.4941  -23.8728 H   0  0  0  0  0  0  0  0  0  0  0  0
   -8.0823   -4.5717  -22.2819 H   0  0  0  0  0  0  0  0  0  0  0  0
   -8.7667   -2.2171  -23.1016 H   0  0  0  0  0  0  0  0  0  0  0  0
   -7.6878   -0.1404  -24.1081 H   0  0  0  0  0  0  0  0  0  0  0  0
   -5.9237   -0.6764  -27.9747 H   0  0  0  0  0  0  0  0  0  0  0  0
   -5.8790   -3.1357  -27.5971 H   0  0  0  0  0  0  0  0  0  0  0  0
   -7.6420   -4.9777  -25.9254 H   0  0  0  0  0  0  0  0  0  0  0  0
   -5.8925   -4.9769  -25.9321 H   0  0  0  0  0  0  0  0  0  0  0  0
   -5.9379   -4.5027  -23.4899 H   0  0  0  0  0  0  0  0  0  0  0  0
   -7.7214   -6.7833  -24.4059 H   0  0  0  0  0  0  0  0  0  0  0  0
   -6.9721   -6.6993  -22.8162 H   0  0  0  0  0  0  0  0  0  0  0  0
   -4.5013   -7.1118  -23.7771 N   0  0  0  0  0  0  0  0  0  0  0  0
   -3.2922   -7.7245  -24.1899 C   0  0  0  0  0  0  0  0  0  0  0  0
   -2.0679   -7.0965  -23.9561 C   0  0  0  0  0  0  0  0  0  0  0  0
   -0.8844   -7.6875  -24.3924 C   0  0  0  0  0  0  0  0  0  0  0  0
   -0.9086   -8.9036  -25.0806 C   0  0  0  0  0  0  0  0  0  0  0  0
    0.3145   -9.5294  -25.4909 N   0  0  0  0  0  0  0  0  0  0  0  0
    1.3230   -9.8700  -24.4833 C   0  0  0  0  0  0  0  0  0  0  0  0
    2.6479  -10.2395  -25.1418 C   0  0  0  0  0  0  0  0  0  0  0  0
    2.4266  -11.1948  -26.1502 O   0  0  0  0  0  0  0  0  0  0  0  0
    1.7052  -10.6250  -27.2082 C   0  0  0  0  0  0  0  0  0  0  0  0
    0.4064   -9.9421  -26.7943 C   0  0  0  0  0  0  0  0  0  0  0  0
   -0.4630   -9.7302  -27.6232 O   0  0  0  0  0  0  0  0  0  0  0  0
    2.3123   -9.8652  -27.7307 H   0  0  0  0  0  0  0  0  0  0  0  0
    1.4541  -11.4290  -27.9024 H   0  0  0  0  0  0  0  0  0  0  0  0
    3.1408   -9.3538  -25.5716 H   0  0  0  0  0  0  0  0  0  0  0  0
    3.3298  -10.6982  -24.4171 H   0  0  0  0  0  0  0  0  0  0  0  0
    1.4653   -9.0082  -23.8246 H   0  0  0  0  0  0  0  0  0  0  0  0
    0.9710  -10.7178  -23.8797 H   0  0  0  0  0  0  0  0  0  0  0  0
   -2.1427   -9.5128  -25.3359 C   0  0  0  0  0  0  0  0  0  0  0  0
   -3.3154   -8.9569  -24.8423 C   0  0  0  0  0  0  0  0  0  0  0  0
   -4.2600   -9.4758  -24.9562 H   0  0  0  0  0  0  0  0  0  0  0  0
   -2.1966  -10.4315  -25.9185 H   0  0  0  0  0  0  0  0  0  0  0  0
    0.0638   -7.1841  -24.2041 H   0  0  0  0  0  0  0  0  0  0  0  0
   -2.0343   -6.1409  -23.4396 H   0  0  0  0  0  0  0  0  0  0  0  0
   -4.4934   -6.5141  -22.9669 H   0  0  0  0  0  0  0  0  0  0  0  0
  1  2  2  0
  2  3  1  0
  3  4  1  0
  4  5  1  0
  5  6  1  0
  6  7  2  0
  7  8  1  0
  8  9  2  0
  9 10  1  0
  9 11  1  0
 11 12  2  0
 12 13  1  0
 13 14  1  0
 14 15  2  0
 14 16  1  0
 16 17  1  0
 17 18  2  0
 18 19  1  0
 19 20  2  0
 20 21  1  0
 21 22  2  0
 22 23  1  0
 23 24  2  0
 24 25  1  0
 25 26  2  0
 25 27  1  0
 24 28  1  0
 23 29  1  0
 22 30  1  0
 20 31  1  0
 18 32  1  0
 16 33  1  0
 13 34  1  0
 34 35  1  0
 34 36  1  0
 13 37  1  1
 11 38  1  0
  8 39  1  0
  7 40  1  0
  5 41  1  0
  5 42  1  0
  4 43  1  1
  3 44  1  0
  3 45  1  0
  2 46  1  0
 46 47  1  0
 47 48  2  0
 48 49  1  0
 49 50  2  0
 50 51  1  0
 51 52  1  0
 52 53  1  0
 53 54  1  0
 54 55  1  0
 55 56  1  0
 56 57  2  0
 55 58  1  0
 55 59  1  0
 53 60  1  0
 53 61  1  0
 52 62  1  0
 52 63  1  0
 50 64  1  0
 64 65  2  0
 65 66  1  0
 64 67  1  0
 49 68  1  0
 48 69  1  0
 46 70  1  0
 34  4  1  0
 65 47  1  0
 12  6  1  0
 26 17  1  0
 56 51  1  0
 26 21  1  0
M  CHG  1   4   1
M  END
>  <cnnaffinities>  (25) 
[6.37901]

>  <score>  (25) 
6.37901

>  <index>  (25) 
25

>  <Smiles>  (25) 
O=C(C([N@+]1(C(c2c(c(c(Cl)c(c2[C@](C(=O)N(c2c(nc(c3c(c(c(c(c23)[H])[H])[H])[H])[H])[H])[H])(C1([H])[H])[H])[H])[H])[H])([H])[H])[H])([H])[H])N(c1c(c(c(N2C(C(OC(C2=O)([H])[H])([H])[H])([H])[H])c(c1[H])[H])[H])[H])[H]

>  <h>  (25) 
<NA>

>  <Training>  (25) 
True

>  <Success>  (25) 
True

>  <enamine_searched>  (25) 
False

>  <enamine_id>  (25) 
nan

$$$$

     RDKit          3D

 55 60  0  0  0  0  0  0  0  0999 V2000
  -10.4425   -1.1595  -23.2478 C   0  0  0  0  0  0  0  0  0  0  0  0
   -8.9954   -1.5026  -22.9224 C   0  0  1  0  0  0  0  0  0  0  0  0
   -8.3670   -0.5363  -21.9064 C   0  0  0  0  0  0  0  0  0  0  0  0
   -7.3627   -1.3546  -21.2478 N   0  0  0  0  0  0  0  0  0  0  0  0
   -6.5727   -0.8529  -20.1895 C   0  0  0  0  0  0  0  0  0  0  0  0
   -6.8939   -1.1026  -18.8797 C   0  0  0  0  0  0  0  0  0  0  0  0
   -6.2345   -0.5690  -17.8198 N   0  0  0  0  0  0  0  0  0  0  0  0
   -5.2100    0.2083  -18.0809 C   0  0  0  0  0  0  0  0  0  0  0  0
   -4.7500    0.5132  -19.3945 C   0  0  0  0  0  0  0  0  0  0  0  0
   -3.6210    1.3377  -19.6326 C   0  0  0  0  0  0  0  0  0  0  0  0
   -3.2201    1.6059  -20.9124 C   0  0  0  0  0  0  0  0  0  0  0  0
   -3.9197    1.0655  -22.0155 C   0  0  0  0  0  0  0  0  0  0  0  0
   -5.0147    0.2625  -21.8126 C   0  0  0  0  0  0  0  0  0  0  0  0
   -5.4542   -0.0232  -20.4927 C   0  0  0  0  0  0  0  0  0  0  0  0
   -5.5502   -0.1652  -22.6551 H   0  0  0  0  0  0  0  0  0  0  0  0
   -3.5946    1.2966  -23.0261 H   0  0  0  0  0  0  0  0  0  0  0  0
   -2.3640    2.2496  -21.0907 H   0  0  0  0  0  0  0  0  0  0  0  0
   -3.1028    1.7610  -18.7763 H   0  0  0  0  0  0  0  0  0  0  0  0
   -4.6812    0.6374  -17.2286 H   0  0  0  0  0  0  0  0  0  0  0  0
   -7.7264   -1.7601  -18.6372 H   0  0  0  0  0  0  0  0  0  0  0  0
   -7.6219   -2.7036  -21.3408 C   0  0  0  0  0  0  0  0  0  0  0  0
   -7.0105   -3.5532  -20.7229 O   0  0  0  0  0  0  0  0  0  0  0  0
   -8.7831   -2.9342  -22.3071 C   0  0  1  0  0  0  0  0  0  0  0  0
   -9.9853   -3.4086  -21.4530 C   0  0  0  0  0  0  0  0  0  0  0  0
  -11.0858   -3.9441  -22.2379 N   0  0  0  0  0  0  0  0  0  0  0  0
  -12.4541   -3.7984  -21.7721 C   0  0  0  0  0  0  0  0  0  0  0  0
  -13.2797   -2.6958  -22.3469 C   0  0  0  0  0  0  0  0  0  0  0  0
  -13.9943   -2.7326  -23.5556 C   0  0  0  0  0  0  0  0  0  0  0  0
  -14.7912   -1.6734  -23.6193 N   0  0  0  0  0  0  0  0  0  0  0  0
  -14.5483   -1.0527  -22.4824 N   0  0  0  0  0  0  0  0  0  0  0  0
  -13.6566   -1.6123  -21.6782 N   0  0  0  0  0  0  0  0  0  0  0  0
  -15.0899   -0.2607  -22.1742 H   0  0  0  0  0  0  0  0  0  0  0  0
  -13.9146   -3.4536  -24.3545 H   0  0  0  0  0  0  0  0  0  0  0  0
  -12.4955   -3.7653  -20.6816 H   0  0  0  0  0  0  0  0  0  0  0  0
  -12.9731   -4.6805  -22.1316 H   0  0  0  0  0  0  0  0  0  0  0  0
  -10.9231   -4.5822  -23.4353 C   0  0  0  0  0  0  0  0  0  0  0  0
  -11.8788   -4.9196  -24.1293 O   0  0  0  0  0  0  0  0  0  0  0  0
   -9.5076   -4.7909  -23.8522 C   0  0  0  0  0  0  0  0  0  0  0  0
   -9.2522   -5.7658  -24.8102 C   0  0  0  0  0  0  0  0  0  0  0  0
   -7.9921   -5.8949  -25.3582 C   0  0  0  0  0  0  0  0  0  0  0  0
   -6.9919   -5.0353  -24.9183 C   0  0  0  0  0  0  0  0  0  0  0  0
   -5.7861   -5.1080  -25.5061 F   0  0  0  0  0  0  0  0  0  0  0  0
   -7.1987   -4.1091  -23.9120 C   0  0  0  0  0  0  0  0  0  0  0  0
   -8.4765   -3.9880  -23.3494 C   0  0  0  0  0  0  0  0  0  0  0  0
   -6.3632   -3.5021  -23.5776 H   0  0  0  0  0  0  0  0  0  0  0  0
   -7.7814   -6.6197  -26.1354 H   0  0  0  0  0  0  0  0  0  0  0  0
  -10.0789   -6.4022  -25.1126 H   0  0  0  0  0  0  0  0  0  0  0  0
  -10.3670   -2.5312  -20.9223 H   0  0  0  0  0  0  0  0  0  0  0  0
   -9.6351   -4.1498  -20.7176 H   0  0  0  0  0  0  0  0  0  0  0  0
   -9.1108   -0.1721  -21.1792 H   0  0  0  0  0  0  0  0  0  0  0  0
   -7.9122    0.3456  -22.3702 H   0  0  0  0  0  0  0  0  0  0  0  0
   -8.3889   -1.4664  -23.8395 H   0  0  0  0  0  0  0  0  0  0  0  0
  -10.5186   -0.1965  -23.7573 H   0  0  0  0  0  0  0  0  0  0  0  0
  -10.8921   -1.9346  -23.8760 H   0  0  0  0  0  0  0  0  0  0  0  0
  -11.0349   -1.1006  -22.3294 H   0  0  0  0  0  0  0  0  0  0  0  0
  1  2  1  0
  2  3  1  0
  3  4  1  0
  4  5  1  0
  5  6  2  0
  6  7  1  0
  7  8  2  0
  8  9  1  0
  9 10  2  0
 10 11  1  0
 11 12  2  0
 12 13  1  0
 13 14  2  0
 13 15  1  0
 12 16  1  0
 11 17  1  0
 10 18  1  0
  8 19  1  0
  6 20  1  0
  4 21  1  0
 21 22  2  0
 21 23  1  0
 23 24  1  1
 24 25  1  0
 25 26  1  0
 26 27  1  0
 27 28  1  0
 28 29  2  0
 29 30  1  0
 30 31  1  0
 30 32  1  0
 28 33  1  0
 26 34  1  0
 26 35  1  0
 25 36  1  0
 36 37  2  0
 36 38  1  0
 38 39  2  0
 39 40  1  0
 40 41  2  0
 41 42  1  0
 41 43  1  0
 43 44  2  0
 43 45  1  0
 40 46  1  0
 39 47  1  0
 24 48  1  0
 24 49  1  0
  3 50  1  0
  3 51  1  0
  2 52  1  6
  1 53  1  0
  1 54  1  0
  1 55  1  0
 23  2  1  0
 31 27  2  0
 44 38  1  0
 14  5  1  0
 44 23  1  0
 14  9  1  0
M  END
>  <cnnaffinities>  (26) 
[6.86747]

>  <score>  (26) 
6.86747

>  <index>  (26) 
26

>  <Smiles>  (26) 
C([C@]1(C(N(c2c(nc(c3c(c(c(c(c23)[H])[H])[H])[H])[H])[H])C(=O)[C@]21C(N(C(c1c(nn(n1)[H])[H])([H])[H])C(=O)c1c(c(c(F)c(c21)[H])[H])[H])([H])[H])([H])[H])[H])([H])([H])[H]

>  <h>  (26) 
<NA>

>  <Training>  (26) 
True

>  <Success>  (26) 
True

>  <enamine_searched>  (26) 
False

>  <enamine_id>  (26) 
nan

$$$$

     RDKit          3D

 58 62  0  0  0  0  0  0  0  0999 V2000
   -7.0470    3.5751  -22.0979 C   0  0  0  0  0  0  0  0  0  0  0  0
   -7.2885    2.5323  -23.1010 N   0  0  0  0  0  4  0  0  0  0  0  0
   -8.4454    2.8274  -23.9972 C   0  0  0  0  0  0  0  0  0  0  0  0
   -8.7231    1.6678  -24.9551 C   0  0  0  0  0  0  0  0  0  0  0  0
   -9.3798    0.5276  -24.3210 N   0  0  0  0  0  0  0  0  0  0  0  0
   -8.6734   -0.7326  -24.1895 C   0  0  0  0  0  0  0  0  0  0  0  0
   -9.0665   -1.4892  -22.8972 C   0  0  2  0  0  0  0  0  0  0  0  0
   -8.5305   -0.7318  -21.6574 C   0  0  0  0  0  0  0  0  0  0  0  0
   -8.9675    0.2975  -21.1795 O   0  0  0  0  0  0  0  0  0  0  0  0
   -7.4155   -1.3867  -21.1885 N   0  0  0  0  0  0  0  0  0  0  0  0
   -6.6055   -0.8075  -20.1709 C   0  0  0  0  0  0  0  0  0  0  0  0
   -6.9114   -1.0394  -18.8556 C   0  0  0  0  0  0  0  0  0  0  0  0
   -6.2044   -0.5481  -17.8081 N   0  0  0  0  0  0  0  0  0  0  0  0
   -5.1694    0.2074  -18.0840 C   0  0  0  0  0  0  0  0  0  0  0  0
   -4.7373    0.5330  -19.4007 C   0  0  0  0  0  0  0  0  0  0  0  0
   -3.6107    1.3654  -19.6442 C   0  0  0  0  0  0  0  0  0  0  0  0
   -3.2262    1.6658  -20.9220 C   0  0  0  0  0  0  0  0  0  0  0  0
   -3.9470    1.1396  -22.0165 C   0  0  0  0  0  0  0  0  0  0  0  0
   -5.0384    0.3276  -21.8086 C   0  0  0  0  0  0  0  0  0  0  0  0
   -5.4736    0.0074  -20.4916 C   0  0  0  0  0  0  0  0  0  0  0  0
   -5.5681   -0.0825  -22.6642 H   0  0  0  0  0  0  0  0  0  0  0  0
   -3.6431    1.3852  -23.0310 H   0  0  0  0  0  0  0  0  0  0  0  0
   -2.3743    2.3182  -21.0979 H   0  0  0  0  0  0  0  0  0  0  0  0
   -3.0830    1.7751  -18.7867 H   0  0  0  0  0  0  0  0  0  0  0  0
   -4.6197    0.6116  -17.2332 H   0  0  0  0  0  0  0  0  0  0  0  0
   -7.7621   -1.6669  -18.5986 H   0  0  0  0  0  0  0  0  0  0  0  0
   -7.0536   -2.5679  -21.9492 C   0  0  0  0  0  0  0  0  0  0  0  0
   -8.3113   -2.8543  -22.8000 C   0  0  2  0  0  0  0  0  0  0  0  0
   -7.9701   -3.5635  -24.1201 C   0  0  0  0  0  0  0  0  0  0  0  0
   -7.5141   -4.5456  -23.9348 H   0  0  0  0  0  0  0  0  0  0  0  0
   -8.8572   -3.7223  -24.7470 H   0  0  0  0  0  0  0  0  0  0  0  0
   -7.2488   -2.9800  -24.7102 H   0  0  0  0  0  0  0  0  0  0  0  0
   -8.9582   -3.5130  -22.2153 H   0  0  0  0  0  0  0  0  0  0  0  0
   -6.8002   -3.3950  -21.2737 H   0  0  0  0  0  0  0  0  0  0  0  0
   -6.1713   -2.3872  -22.5853 H   0  0  0  0  0  0  0  0  0  0  0  0
  -10.5804   -1.5632  -22.8322 C   0  0  0  0  0  0  0  0  0  0  0  0
  -11.2247   -2.5132  -22.0305 C   0  0  0  0  0  0  0  0  0  0  0  0
  -12.6015   -2.5187  -21.9583 C   0  0  0  0  0  0  0  0  0  0  0  0
  -13.2093   -3.4382  -21.1898 F   0  0  0  0  0  0  0  0  0  0  0  0
  -13.3885   -1.6023  -22.6454 C   0  0  0  0  0  0  0  0  0  0  0  0
  -12.7550   -0.6302  -23.3919 C   0  0  0  0  0  0  0  0  0  0  0  0
  -11.3639   -0.5828  -23.4610 C   0  0  0  0  0  0  0  0  0  0  0  0
  -10.7340    0.5900  -24.1578 C   0  0  0  0  0  0  0  0  0  0  0  0
  -11.3957    1.5467  -24.5426 O   0  0  0  0  0  0  0  0  0  0  0  0
  -13.3088    0.1488  -23.9039 H   0  0  0  0  0  0  0  0  0  0  0  0
  -14.4649   -1.6480  -22.5418 H   0  0  0  0  0  0  0  0  0  0  0  0
  -10.6868   -3.2391  -21.4311 H   0  0  0  0  0  0  0  0  0  0  0  0
   -8.8768   -1.3851  -25.0538 H   0  0  0  0  0  0  0  0  0  0  0  0
   -7.6011   -0.5101  -24.1559 H   0  0  0  0  0  0  0  0  0  0  0  0
   -7.7794    1.3113  -25.3872 H   0  0  0  0  0  0  0  0  0  0  0  0
   -9.3742    2.0163  -25.7609 H   0  0  0  0  0  0  0  0  0  0  0  0
   -9.3311    3.0128  -23.3803 H   0  0  0  0  0  0  0  0  0  0  0  0
   -8.2384    3.7375  -24.5718 H   0  0  0  0  0  0  0  0  0  0  0  0
   -6.4222    2.4088  -23.6785 H   0  0  0  0  0  0  0  0  0  0  0  0
   -7.4990    1.6399  -22.6011 H   0  0  0  0  0  0  0  0  0  0  0  0
   -6.1776    3.3007  -21.4981 H   0  0  0  0  0  0  0  0  0  0  0  0
   -7.9246    3.6792  -21.4515 H   0  0  0  0  0  0  0  0  0  0  0  0
   -6.8737    4.5501  -22.5695 H   0  0  0  0  0  0  0  0  0  0  0  0
  1  2  1  0
  2  3  1  0
  3  4  1  0
  4  5  1  0
  5  6  1  0
  7  6  1  6
  7  8  1  0
  8  9  2  0
  8 10  1  0
 10 11  1  0
 11 12  2  0
 12 13  1  0
 13 14  2  0
 14 15  1  0
 15 16  2  0
 16 17  1  0
 17 18  2  0
 18 19  1  0
 19 20  2  0
 19 21  1  0
 18 22  1  0
 17 23  1  0
 16 24  1  0
 14 25  1  0
 12 26  1  0
 10 27  1  0
 27 28  1  0
 28 29  1  0
 29 30  1  0
 29 31  1  0
 29 32  1  0
 28 33  1  1
 27 34  1  0
 27 35  1  0
  7 36  1  0
 36 37  2  0
 37 38  1  0
 38 39  1  0
 38 40  2  0
 40 41  1  0
 41 42  2  0
 42 43  1  0
 43 44  2  0
 41 45  1  0
 40 46  1  0
 37 47  1  0
  6 48  1  0
  6 49  1  0
  4 50  1  0
  4 51  1  0
  3 52  1  0
  3 53  1  0
  2 54  1  0
  2 55  1  0
  1 56  1  0
  1 57  1  0
  1 58  1  0
 43  5  1  0
 28  7  1  0
 42 36  1  0
 20 11  1  0
 20 15  1  0
M  CHG  1   2   1
M  END
>  <cnnaffinities>  (27) 
[6.19797]

>  <score>  (27) 
6.19797

>  <index>  (27) 
27

>  <Smiles>  (27) 
C([N+](C(C(N1C([C@@]2(C(=O)N(c3c(nc(c4c(c(c(c(c34)[H])[H])[H])[H])[H])[H])C([C@@]2(C([H])([H])[H])[H])([H])[H])c2c(c(F)c(c(c2C1=O)[H])[H])[H])([H])[H])([H])[H])([H])[H])([H])[H])([H])([H])[H]

>  <h>  (27) 
<NA>

>  <Training>  (27) 
True

>  <Success>  (27) 
True

>  <enamine_searched>  (27) 
False

>  <enamine_id>  (27) 
nan

$$$$

     RDKit          3D

 64 68  0  0  0  0  0  0  0  0999 V2000
   -7.4298    3.3543  -21.7899 C   0  0  0  0  0  0  0  0  0  0  0  0
   -8.3687    2.9171  -22.8060 N   0  0  0  0  0  0  0  0  0  0  0  0
   -7.8420    2.1946  -23.8354 C   0  0  0  0  0  0  0  0  0  0  0  0
   -6.6342    2.0435  -23.9657 O   0  0  0  0  0  0  0  0  0  0  0  0
   -8.8257    1.5880  -24.8262 C   0  0  0  0  0  0  0  0  0  0  0  0
   -9.4861    0.4171  -24.2934 N   0  0  0  0  0  0  0  0  0  0  0  0
   -8.7307   -0.8153  -24.1546 C   0  0  0  0  0  0  0  0  0  0  0  0
   -9.0881   -1.5631  -22.8536 C   0  0  2  0  0  0  0  0  0  0  0  0
   -8.5531   -0.7836  -21.6319 C   0  0  0  0  0  0  0  0  0  0  0  0
   -9.0331    0.2111  -21.1234 O   0  0  0  0  0  0  0  0  0  0  0  0
   -7.4013   -1.3975  -21.1991 N   0  0  0  0  0  0  0  0  0  0  0  0
   -6.6025   -0.8221  -20.1763 C   0  0  0  0  0  0  0  0  0  0  0  0
   -6.9218   -1.0467  -18.8616 C   0  0  0  0  0  0  0  0  0  0  0  0
   -6.2264   -0.5477  -17.8096 N   0  0  0  0  0  0  0  0  0  0  0  0
   -5.1854    0.2028  -18.0799 C   0  0  0  0  0  0  0  0  0  0  0  0
   -4.7423    0.5159  -19.3945 C   0  0  0  0  0  0  0  0  0  0  0  0
   -3.6186    1.3495  -19.6392 C   0  0  0  0  0  0  0  0  0  0  0  0
   -3.2336    1.6495  -20.9166 C   0  0  0  0  0  0  0  0  0  0  0  0
   -3.9562    1.1325  -22.0177 C   0  0  0  0  0  0  0  0  0  0  0  0
   -5.0484    0.3233  -21.8102 C   0  0  0  0  0  0  0  0  0  0  0  0
   -5.4681   -0.0094  -20.4921 C   0  0  0  0  0  0  0  0  0  0  0  0
   -5.6101   -0.0407  -22.6669 H   0  0  0  0  0  0  0  0  0  0  0  0
   -3.6601    1.3875  -23.0313 H   0  0  0  0  0  0  0  0  0  0  0  0
   -2.3788    2.2996  -21.0939 H   0  0  0  0  0  0  0  0  0  0  0  0
   -3.0883    1.7605  -18.7847 H   0  0  0  0  0  0  0  0  0  0  0  0
   -4.6230    0.6016  -17.2343 H   0  0  0  0  0  0  0  0  0  0  0  0
   -7.7870   -1.6617  -18.6158 H   0  0  0  0  0  0  0  0  0  0  0  0
   -7.0409   -2.5902  -21.9352 C   0  0  0  0  0  0  0  0  0  0  0  0
   -8.3172   -2.9166  -22.7385 C   0  0  2  0  0  0  0  0  0  0  0  0
   -8.0416   -3.6885  -24.0407 C   0  0  0  0  0  0  0  0  0  0  0  0
   -7.4447   -5.3349  -23.6825 S   0  0  0  0  0  0  0  0  0  0  0  0
   -6.0845   -5.2550  -23.1708 O   0  0  0  0  0  0  0  0  0  0  0  0
   -8.4740   -6.0327  -22.9256 O   0  0  0  0  0  0  0  0  0  0  0  0
   -7.2860   -5.9847  -25.2106 N   0  0  0  0  0  0  0  0  0  0  0  0
   -8.4762   -6.3723  -25.9630 C   0  0  0  0  0  0  0  0  0  0  0  0
   -8.9999   -5.4791  -26.3122 H   0  0  0  0  0  0  0  0  0  0  0  0
   -9.1747   -6.9844  -25.3839 H   0  0  0  0  0  0  0  0  0  0  0  0
   -8.1566   -6.9311  -26.8501 H   0  0  0  0  0  0  0  0  0  0  0  0
   -6.6087   -6.7332  -25.1271 H   0  0  0  0  0  0  0  0  0  0  0  0
   -8.9566   -3.7986  -24.6348 H   0  0  0  0  0  0  0  0  0  0  0  0
   -7.2746   -3.2092  -24.6573 H   0  0  0  0  0  0  0  0  0  0  0  0
   -8.9303   -3.5787  -22.1277 H   0  0  0  0  0  0  0  0  0  0  0  0
   -6.1840   -2.4020  -22.5977 H   0  0  0  0  0  0  0  0  0  0  0  0
   -6.7585   -3.3954  -21.2504 H   0  0  0  0  0  0  0  0  0  0  0  0
  -10.6004   -1.6484  -22.7688 C   0  0  0  0  0  0  0  0  0  0  0  0
  -11.2168   -2.5579  -21.9040 C   0  0  0  0  0  0  0  0  0  0  0  0
  -12.5967   -2.5676  -21.7863 C   0  0  0  0  0  0  0  0  0  0  0  0
  -13.3483   -3.6362  -20.6351 Cl  0  0  0  0  0  0  0  0  0  0  0  0
  -13.4127   -1.7171  -22.5336 C   0  0  0  0  0  0  0  0  0  0  0  0
  -12.8099   -0.7920  -23.3586 C   0  0  0  0  0  0  0  0  0  0  0  0
  -11.4222   -0.7266  -23.4339 C   0  0  0  0  0  0  0  0  0  0  0  0
  -10.8456    0.4320  -24.1755 C   0  0  0  0  0  0  0  0  0  0  0  0
  -11.5439    1.3385  -24.6150 O   0  0  0  0  0  0  0  0  0  0  0  0
  -13.3842   -0.0622  -23.9191 H   0  0  0  0  0  0  0  0  0  0  0  0
  -14.4895   -1.7776  -22.4220 H   0  0  0  0  0  0  0  0  0  0  0  0
  -10.6243   -3.2431  -21.3045 H   0  0  0  0  0  0  0  0  0  0  0  0
   -7.6674   -0.5611  -24.1743 H   0  0  0  0  0  0  0  0  0  0  0  0
   -8.9493   -1.4715  -25.0048 H   0  0  0  0  0  0  0  0  0  0  0  0
   -9.6193    2.2919  -25.0945 H   0  0  0  0  0  0  0  0  0  0  0  0
   -8.2283    1.3251  -25.7029 H   0  0  0  0  0  0  0  0  0  0  0  0
   -9.3245    2.7717  -22.5133 H   0  0  0  0  0  0  0  0  0  0  0  0
   -6.8088    2.5135  -21.4588 H   0  0  0  0  0  0  0  0  0  0  0  0
   -6.7578    4.1066  -22.2019 H   0  0  0  0  0  0  0  0  0  0  0  0
   -7.9626    3.7810  -20.9401 H   0  0  0  0  0  0  0  0  0  0  0  0
  1  2  1  0
  2  3  1  0
  3  4  2  0
  3  5  1  0
  5  6  1  0
  6  7  1  0
  8  7  1  6
  8  9  1  0
  9 10  2  0
  9 11  1  0
 11 12  1  0
 12 13  2  0
 13 14  1  0
 14 15  2  0
 15 16  1  0
 16 17  2  0
 17 18  1  0
 18 19  2  0
 19 20  1  0
 20 21  2  0
 20 22  1  0
 19 23  1  0
 18 24  1  0
 17 25  1  0
 15 26  1  0
 13 27  1  0
 11 28  1  0
 28 29  1  0
 29 30  1  0
 30 31  1  0
 31 32  2  0
 31 33  2  0
 31 34  1  0
 34 35  1  0
 35 36  1  0
 35 37  1  0
 35 38  1  0
 34 39  1  0
 30 40  1  0
 30 41  1  0
 29 42  1  1
 28 43  1  0
 28 44  1  0
  8 45  1  0
 45 46  2  0
 46 47  1  0
 47 48  1  0
 47 49  2  0
 49 50  1  0
 50 51  2  0
 51 52  1  0
 52 53  2  0
 50 54  1  0
 49 55  1  0
 46 56  1  0
  7 57  1  0
  7 58  1  0
  5 59  1  0
  5 60  1  0
  2 61  1  0
  1 62  1  0
  1 63  1  0
  1 64  1  0
 52  6  1  0
 29  8  1  0
 51 45  1  0
 21 12  1  0
 21 16  1  0
M  END
>  <cnnaffinities>  (28) 
[6.49193, 6.58242, 6.99469, 6.56155, 6.89021]

>  <score>  (28) 
6.49193

>  <index>  (28) 
28

>  <Smiles>  (28) 
C(N(C(=O)C(N1C([C@@]2(C(=O)N(c3c(nc(c4c(c(c(c(c34)[H])[H])[H])[H])[H])[H])C([C@@]2(C(S(=O)(=O)N(C([H])([H])[H])[H])([H])[H])[H])([H])[H])c2c(c(Cl)c(c(c2C1=O)[H])[H])[H])([H])[H])([H])[H])[H])([H])([H])[H]

>  <h>  (28) 
<NA>

>  <Training>  (28) 
True

>  <Success>  (28) 
True

>  <enamine_searched>  (28) 
False

>  <enamine_id>  (28) 
nan

$$$$

     RDKit          3D

 55 60  0  0  0  0  0  0  0  0999 V2000
  -10.4428   -1.1600  -23.2474 C   0  0  0  0  0  0  0  0  0  0  0  0
   -8.9956   -1.5031  -22.9222 C   0  0  1  0  0  0  0  0  0  0  0  0
   -8.3670   -0.5366  -21.9065 C   0  0  0  0  0  0  0  0  0  0  0  0
   -7.3627   -1.3548  -21.2477 N   0  0  0  0  0  0  0  0  0  0  0  0
   -6.5727   -0.8529  -20.1894 C   0  0  0  0  0  0  0  0  0  0  0  0
   -6.8938   -1.1024  -18.8796 C   0  0  0  0  0  0  0  0  0  0  0  0
   -6.2343   -0.5688  -17.8197 N   0  0  0  0  0  0  0  0  0  0  0  0
   -5.2098    0.2083  -18.0809 C   0  0  0  0  0  0  0  0  0  0  0  0
   -4.7498    0.5132  -19.3945 C   0  0  0  0  0  0  0  0  0  0  0  0
   -3.6209    1.3377  -19.6326 C   0  0  0  0  0  0  0  0  0  0  0  0
   -3.2200    1.6059  -20.9124 C   0  0  0  0  0  0  0  0  0  0  0  0
   -3.9196    1.0655  -22.0155 C   0  0  0  0  0  0  0  0  0  0  0  0
   -5.0147    0.2625  -21.8126 C   0  0  0  0  0  0  0  0  0  0  0  0
   -5.4541   -0.0232  -20.4927 C   0  0  0  0  0  0  0  0  0  0  0  0
   -5.5502   -0.1651  -22.6551 H   0  0  0  0  0  0  0  0  0  0  0  0
   -3.5946    1.2966  -23.0261 H   0  0  0  0  0  0  0  0  0  0  0  0
   -2.3639    2.2497  -21.0907 H   0  0  0  0  0  0  0  0  0  0  0  0
   -3.1026    1.7610  -18.7763 H   0  0  0  0  0  0  0  0  0  0  0  0
   -4.6808    0.6373  -17.2286 H   0  0  0  0  0  0  0  0  0  0  0  0
   -7.7265   -1.7597  -18.6370 H   0  0  0  0  0  0  0  0  0  0  0  0
   -7.6216   -2.7038  -21.3406 C   0  0  0  0  0  0  0  0  0  0  0  0
   -7.0099   -3.5531  -20.7227 O   0  0  0  0  0  0  0  0  0  0  0  0
   -8.7831   -2.9347  -22.3068 C   0  0  1  0  0  0  0  0  0  0  0  0
   -9.9851   -3.4092  -21.4525 C   0  0  0  0  0  0  0  0  0  0  0  0
  -11.0858   -3.9451  -22.2370 N   0  0  0  0  0  0  0  0  0  0  0  0
  -12.4540   -3.7992  -21.7710 C   0  0  0  0  0  0  0  0  0  0  0  0
  -13.2795   -2.6964  -22.3456 C   0  0  0  0  0  0  0  0  0  0  0  0
  -13.9938   -2.7334  -23.5544 C   0  0  0  0  0  0  0  0  0  0  0  0
  -14.7907   -1.6741  -23.6186 N   0  0  0  0  0  0  0  0  0  0  0  0
  -14.5479   -1.0532  -22.4818 N   0  0  0  0  0  0  0  0  0  0  0  0
  -13.6560   -1.6124  -21.6774 N   0  0  0  0  0  0  0  0  0  0  0  0
  -15.0885   -0.2602  -22.1744 H   0  0  0  0  0  0  0  0  0  0  0  0
  -13.9143   -3.4549  -24.3530 H   0  0  0  0  0  0  0  0  0  0  0  0
  -12.4950   -3.7668  -20.6806 H   0  0  0  0  0  0  0  0  0  0  0  0
  -12.9733   -4.6808  -22.1312 H   0  0  0  0  0  0  0  0  0  0  0  0
  -10.9230   -4.5832  -23.4344 C   0  0  0  0  0  0  0  0  0  0  0  0
  -11.8787   -4.9210  -24.1283 O   0  0  0  0  0  0  0  0  0  0  0  0
   -9.5076   -4.7915  -23.8516 C   0  0  0  0  0  0  0  0  0  0  0  0
   -9.2522   -5.7661  -24.8099 C   0  0  0  0  0  0  0  0  0  0  0  0
   -7.9921   -5.8949  -25.3583 C   0  0  0  0  0  0  0  0  0  0  0  0
   -6.9920   -5.0352  -24.9183 C   0  0  0  0  0  0  0  0  0  0  0  0
   -5.7862   -5.1074  -25.5063 F   0  0  0  0  0  0  0  0  0  0  0  0
   -7.1988   -4.1091  -23.9119 C   0  0  0  0  0  0  0  0  0  0  0  0
   -8.4766   -3.9884  -23.3490 C   0  0  0  0  0  0  0  0  0  0  0  0
   -6.3636   -3.5016  -23.5778 H   0  0  0  0  0  0  0  0  0  0  0  0
   -7.7813   -6.6193  -26.1357 H   0  0  0  0  0  0  0  0  0  0  0  0
  -10.0787   -6.4025  -25.1124 H   0  0  0  0  0  0  0  0  0  0  0  0
  -10.3664   -2.5315  -20.9218 H   0  0  0  0  0  0  0  0  0  0  0  0
   -9.6346   -4.1503  -20.7173 H   0  0  0  0  0  0  0  0  0  0  0  0
   -9.1107   -0.1722  -21.1793 H   0  0  0  0  0  0  0  0  0  0  0  0
   -7.9122    0.3451  -22.3706 H   0  0  0  0  0  0  0  0  0  0  0  0
   -8.3893   -1.4671  -23.8394 H   0  0  0  0  0  0  0  0  0  0  0  0
  -10.5188   -0.1971  -23.7570 H   0  0  0  0  0  0  0  0  0  0  0  0
  -10.8926   -1.9351  -23.8755 H   0  0  0  0  0  0  0  0  0  0  0  0
  -11.0352   -1.1011  -22.3290 H   0  0  0  0  0  0  0  0  0  0  0  0
  1  2  1  0
  2  3  1  0
  3  4  1  0
  4  5  1  0
  5  6  2  0
  6  7  1  0
  7  8  2  0
  8  9  1  0
  9 10  2  0
 10 11  1  0
 11 12  2  0
 12 13  1  0
 13 14  2  0
 13 15  1  0
 12 16  1  0
 11 17  1  0
 10 18  1  0
  8 19  1  0
  6 20  1  0
  4 21  1  0
 21 22  2  0
 21 23  1  0
 23 24  1  1
 24 25  1  0
 25 26  1  0
 26 27  1  0
 27 28  1  0
 28 29  2  0
 29 30  1  0
 30 31  1  0
 30 32  1  0
 28 33  1  0
 26 34  1  0
 26 35  1  0
 25 36  1  0
 36 37  2  0
 36 38  1  0
 38 39  2  0
 39 40  1  0
 40 41  2  0
 41 42  1  0
 41 43  1  0
 43 44  2  0
 43 45  1  0
 40 46  1  0
 39 47  1  0
 24 48  1  0
 24 49  1  0
  3 50  1  0
  3 51  1  0
  2 52  1  6
  1 53  1  0
  1 54  1  0
  1 55  1  0
 23  2  1  0
 31 27  2  0
 44 38  1  0
 14  5  1  0
 44 23  1  0
 14  9  1  0
M  END
>  <cnnaffinities>  (29) 
[6.86711]

>  <score>  (29) 
6.86711

>  <index>  (29) 
29

>  <Smiles>  (29) 
C([C@]1(C(N(c2c(nc(c3c(c(c(c(c23)[H])[H])[H])[H])[H])[H])C(=O)[C@]21C(N(C(c1c(nn(n1)[H])[H])([H])[H])C(=O)c1c(c(c(F)c(c21)[H])[H])[H])([H])[H])([H])[H])[H])([H])([H])[H]

>  <h>  (29) 
<NA>

>  <Training>  (29) 
True

>  <Success>  (29) 
True

>  <enamine_searched>  (29) 
False

>  <enamine_id>  (29) 
nan

$$$$

     RDKit          3D

 58 63  0  0  0  0  0  0  0  0999 V2000
   -8.1236   -4.1456  -23.7853 C   0  0  0  0  0  0  0  0  0  0  0  0
   -8.3478   -3.1646  -22.6551 C   0  0  1  0  0  0  0  0  0  0  0  0
   -7.0587   -2.4531  -22.2449 C   0  0  0  0  0  0  0  0  0  0  0  0
   -7.5656   -1.3934  -21.3991 N   0  0  0  0  0  0  0  0  0  0  0  0
   -6.8550   -0.8396  -20.3110 C   0  0  0  0  0  0  0  0  0  0  0  0
   -7.2442   -1.0478  -19.0075 C   0  0  0  0  0  0  0  0  0  0  0  0
   -6.5485   -0.5991  -17.9336 N   0  0  0  0  0  0  0  0  0  0  0  0
   -5.4573    0.0904  -18.1650 C   0  0  0  0  0  0  0  0  0  0  0  0
   -4.9590    0.3970  -19.4620 C   0  0  0  0  0  0  0  0  0  0  0  0
   -3.7942    1.1855  -19.6685 C   0  0  0  0  0  0  0  0  0  0  0  0
   -3.3738    1.4895  -20.9343 C   0  0  0  0  0  0  0  0  0  0  0  0
   -4.0832    1.0044  -22.0578 C   0  0  0  0  0  0  0  0  0  0  0  0
   -5.1839    0.2003  -21.8749 C   0  0  0  0  0  0  0  0  0  0  0  0
   -5.6663   -0.0982  -20.5738 C   0  0  0  0  0  0  0  0  0  0  0  0
   -5.7305   -0.1628  -22.7370 H   0  0  0  0  0  0  0  0  0  0  0  0
   -3.7986    1.3105  -23.0608 H   0  0  0  0  0  0  0  0  0  0  0  0
   -2.4937    2.1101  -21.0810 H   0  0  0  0  0  0  0  0  0  0  0  0
   -3.2651    1.5510  -18.7918 H   0  0  0  0  0  0  0  0  0  0  0  0
   -4.9012    0.4536  -17.3007 H   0  0  0  0  0  0  0  0  0  0  0  0
   -8.1447   -1.6160  -18.7836 H   0  0  0  0  0  0  0  0  0  0  0  0
   -8.8877   -1.0953  -21.6596 C   0  0  0  0  0  0  0  0  0  0  0  0
   -9.5244   -0.2362  -21.0911 O   0  0  0  0  0  0  0  0  0  0  0  0
   -9.4037   -2.0320  -22.7945 C   0  0  1  0  0  0  0  0  0  0  0  0
   -9.3079   -1.3019  -24.1641 C   0  0  0  0  0  0  0  0  0  0  0  0
  -10.3800   -0.3434  -24.3930 N   0  0  0  0  0  0  0  0  0  0  0  0
  -10.0821    0.8449  -25.1755 C   0  0  0  0  0  0  0  0  0  0  0  0
   -8.9612    1.6125  -24.5170 C   0  0  0  0  0  0  0  0  0  0  0  0
   -7.8221    1.9828  -25.1655 C   0  0  0  0  0  0  0  0  0  0  0  0
   -6.6406    2.3304  -24.4033 C   0  0  0  0  0  0  0  0  0  0  0  0
   -5.5031    2.4939  -24.8169 O   0  0  0  0  0  0  0  0  0  0  0  0
   -6.9240    2.4471  -23.0343 N   0  0  0  0  0  0  0  0  0  0  0  0
   -8.1435    2.1926  -22.4908 C   0  0  0  0  0  0  0  0  0  0  0  0
   -9.1749    1.8266  -23.1850 N   0  0  0  0  0  0  0  0  0  0  0  0
   -8.2245    2.2768  -21.4148 H   0  0  0  0  0  0  0  0  0  0  0  0
   -6.1360    2.6457  -22.4279 H   0  0  0  0  0  0  0  0  0  0  0  0
   -7.7333    1.9291  -26.2399 H   0  0  0  0  0  0  0  0  0  0  0  0
  -11.0048    1.4228  -25.1614 H   0  0  0  0  0  0  0  0  0  0  0  0
   -9.8450    0.5843  -26.2142 H   0  0  0  0  0  0  0  0  0  0  0  0
  -11.6758   -0.5638  -24.0311 C   0  0  0  0  0  0  0  0  0  0  0  0
  -12.6095    0.1241  -24.4163 O   0  0  0  0  0  0  0  0  0  0  0  0
  -11.9041   -1.6633  -23.0607 C   0  0  0  0  0  0  0  0  0  0  0  0
  -13.2258   -1.8218  -22.6495 C   0  0  0  0  0  0  0  0  0  0  0  0
  -13.5435   -2.7008  -21.6442 C   0  0  0  0  0  0  0  0  0  0  0  0
  -12.5047   -3.4469  -21.1126 C   0  0  0  0  0  0  0  0  0  0  0  0
  -12.7932   -4.2013  -20.0415 F   0  0  0  0  0  0  0  0  0  0  0  0
  -11.2016   -3.3787  -21.5778 C   0  0  0  0  0  0  0  0  0  0  0  0
  -10.8510   -2.4187  -22.5335 C   0  0  0  0  0  0  0  0  0  0  0  0
  -10.4627   -4.0042  -21.0980 H   0  0  0  0  0  0  0  0  0  0  0  0
  -14.5475   -2.7937  -21.2480 H   0  0  0  0  0  0  0  0  0  0  0  0
  -13.9610   -1.1590  -23.0912 H   0  0  0  0  0  0  0  0  0  0  0  0
   -9.3024   -2.0370  -24.9785 H   0  0  0  0  0  0  0  0  0  0  0  0
   -8.3587   -0.7631  -24.1986 H   0  0  0  0  0  0  0  0  0  0  0  0
   -6.3650   -3.1129  -21.7155 H   0  0  0  0  0  0  0  0  0  0  0  0
   -6.5185   -2.0667  -23.1225 H   0  0  0  0  0  0  0  0  0  0  0  0
   -8.6476   -3.7270  -21.7688 H   0  0  0  0  0  0  0  0  0  0  0  0
   -9.0353   -4.6918  -24.0298 H   0  0  0  0  0  0  0  0  0  0  0  0
   -7.7615   -3.6494  -24.6905 H   0  0  0  0  0  0  0  0  0  0  0  0
   -7.3625   -4.8740  -23.4848 H   0  0  0  0  0  0  0  0  0  0  0  0
  1  2  1  0
  2  3  1  0
  3  4  1  0
  4  5  1  0
  5  6  2  0
  6  7  1  0
  7  8  2  0
  8  9  1  0
  9 10  2  0
 10 11  1  0
 11 12  2  0
 12 13  1  0
 13 14  2  0
 13 15  1  0
 12 16  1  0
 11 17  1  0
 10 18  1  0
  8 19  1  0
  6 20  1  0
  4 21  1  0
 21 22  2  0
 21 23  1  0
 23 24  1  6
 24 25  1  0
 25 26  1  0
 26 27  1  0
 27 28  2  0
 28 29  1  0
 29 30  2  0
 29 31  1  0
 31 32  1  0
 32 33  2  0
 32 34  1  0
 31 35  1  0
 28 36  1  0
 26 37  1  0
 26 38  1  0
 25 39  1  0
 39 40  2  0
 39 41  1  0
 41 42  2  0
 42 43  1  0
 43 44  2  0
 44 45  1  0
 44 46  1  0
 46 47  2  0
 46 48  1  0
 43 49  1  0
 42 50  1  0
 24 51  1  0
 24 52  1  0
  3 53  1  0
  3 54  1  0
  2 55  1  1
  1 56  1  0
  1 57  1  0
  1 58  1  0
 23  2  1  0
 33 27  1  0
 47 41  1  0
 14  5  1  0
 47 23  1  0
 14  9  1  0
M  END
>  <cnnaffinities>  (30) 
[6.70549]

>  <score>  (30) 
6.70549

>  <index>  (30) 
30

>  <Smiles>  (30) 
C([C@]1(C(N(c2c(nc(c3c(c(c(c(c23)[H])[H])[H])[H])[H])[H])C(=O)[C@]21C(N(C(c1c(c(=O)n(c(n1)[H])[H])[H])([H])[H])C(=O)c1c(c(c(F)c(c21)[H])[H])[H])([H])[H])([H])[H])[H])([H])([H])[H]

>  <h>  (30) 
<NA>

>  <Training>  (30) 
True

>  <Success>  (30) 
True

>  <enamine_searched>  (30) 
False

>  <enamine_id>  (30) 
nan

$$$$

     RDKit          3D

 66 71  0  0  0  0  0  0  0  0999 V2000
   -7.3579    3.4091  -21.8248 C   0  0  0  0  0  0  0  0  0  0  0  0
   -8.2060    2.9423  -22.9045 N   0  0  0  0  0  0  0  0  0  0  0  0
   -7.6386    2.2511  -23.9146 C   0  0  0  0  0  0  0  0  0  0  0  0
   -6.4243    2.1317  -24.0230 O   0  0  0  0  0  0  0  0  0  0  0  0
   -8.5938    1.6314  -24.9441 C   0  0  0  0  0  0  0  0  0  0  0  0
   -9.3268    0.4828  -24.4436 N   0  0  0  0  0  0  0  0  0  0  0  0
   -8.6140   -0.7718  -24.2732 C   0  0  0  0  0  0  0  0  0  0  0  0
   -9.0221   -1.4968  -22.9658 C   0  0  2  0  0  0  0  0  0  0  0  0
   -8.4794   -0.7091  -21.7394 C   0  0  0  0  0  0  0  0  0  0  0  0
   -8.8975    0.3393  -21.2941 O   0  0  0  0  0  0  0  0  0  0  0  0
   -7.4093   -1.3917  -21.2120 N   0  0  0  0  0  0  0  0  0  0  0  0
   -6.6091   -0.8150  -20.1830 C   0  0  0  0  0  0  0  0  0  0  0  0
   -6.9117   -1.0426  -18.8652 C   0  0  0  0  0  0  0  0  0  0  0  0
   -6.2096   -0.5475  -17.8141 N   0  0  0  0  0  0  0  0  0  0  0  0
   -5.1709    0.2075  -18.0786 C   0  0  0  0  0  0  0  0  0  0  0  0
   -4.7317    0.5256  -19.3954 C   0  0  0  0  0  0  0  0  0  0  0  0
   -3.6026    1.3580  -19.6406 C   0  0  0  0  0  0  0  0  0  0  0  0
   -3.2149    1.6488  -20.9193 C   0  0  0  0  0  0  0  0  0  0  0  0
   -3.9364    1.1204  -22.0131 C   0  0  0  0  0  0  0  0  0  0  0  0
   -5.0308    0.3160  -21.8017 C   0  0  0  0  0  0  0  0  0  0  0  0
   -5.4677   -0.0014  -20.4867 C   0  0  0  0  0  0  0  0  0  0  0  0
   -5.5874   -0.0713  -22.6498 H   0  0  0  0  0  0  0  0  0  0  0  0
   -3.6445    1.3663  -23.0285 H   0  0  0  0  0  0  0  0  0  0  0  0
   -2.3633    2.3010  -21.0983 H   0  0  0  0  0  0  0  0  0  0  0  0
   -3.0749    1.7748  -18.7858 H   0  0  0  0  0  0  0  0  0  0  0  0
   -4.6201    0.6120  -17.2273 H   0  0  0  0  0  0  0  0  0  0  0  0
   -7.7627   -1.6660  -18.6022 H   0  0  0  0  0  0  0  0  0  0  0  0
   -7.0761   -2.6105  -21.9239 C   0  0  0  0  0  0  0  0  0  0  0  0
   -8.3052   -2.8808  -22.8181 C   0  0  2  0  0  0  0  0  0  0  0  0
   -7.9100   -3.6484  -24.0988 C   0  0  0  0  0  0  0  0  0  0  0  0
   -9.0601   -3.9972  -24.9196 N   0  0  0  0  0  0  0  0  0  0  0  0
   -8.9594   -4.6206  -26.1264 C   0  0  0  0  0  0  0  0  0  0  0  0
  -10.1200   -4.9263  -26.8788 C   0  0  0  0  0  0  0  0  0  0  0  0
   -9.9292   -5.5448  -28.0935 C   0  0  0  0  0  0  0  0  0  0  0  0
   -8.7128   -5.8494  -28.5829 N   0  0  0  0  0  0  0  0  0  0  0  0
   -7.7011   -5.5283  -27.7896 C   0  0  0  0  0  0  0  0  0  0  0  0
   -7.7393   -4.9263  -26.5933 N   0  0  0  0  0  0  0  0  0  0  0  0
   -6.7014   -5.7822  -28.1646 H   0  0  0  0  0  0  0  0  0  0  0  0
  -10.7761   -5.8169  -28.7305 H   0  0  0  0  0  0  0  0  0  0  0  0
  -11.1224   -4.6965  -26.5200 H   0  0  0  0  0  0  0  0  0  0  0  0
   -9.9897   -3.8007  -24.5813 H   0  0  0  0  0  0  0  0  0  0  0  0
   -7.3656   -4.5683  -23.8370 H   0  0  0  0  0  0  0  0  0  0  0  0
   -7.2098   -3.0560  -24.7076 H   0  0  0  0  0  0  0  0  0  0  0  0
   -8.9968   -3.5188  -22.2597 H   0  0  0  0  0  0  0  0  0  0  0  0
   -6.8873   -3.4258  -21.2176 H   0  0  0  0  0  0  0  0  0  0  0  0
   -6.1653   -2.4851  -22.5296 H   0  0  0  0  0  0  0  0  0  0  0  0
  -10.5414   -1.5246  -22.8911 C   0  0  0  0  0  0  0  0  0  0  0  0
  -11.1862   -2.3790  -21.9866 C   0  0  0  0  0  0  0  0  0  0  0  0
  -12.5664   -2.3851  -21.9026 C   0  0  0  0  0  0  0  0  0  0  0  0
  -13.3604   -3.4503  -20.7807 Cl  0  0  0  0  0  0  0  0  0  0  0  0
  -13.3467   -1.5393  -22.6892 C   0  0  0  0  0  0  0  0  0  0  0  0
  -12.7147   -0.6391  -23.5244 C   0  0  0  0  0  0  0  0  0  0  0  0
  -11.3223   -0.5992  -23.6003 C   0  0  0  0  0  0  0  0  0  0  0  0
  -10.6925    0.5262  -24.3720 C   0  0  0  0  0  0  0  0  0  0  0  0
  -11.3590    1.4253  -24.8615 O   0  0  0  0  0  0  0  0  0  0  0  0
  -13.2732    0.0865  -24.1063 H   0  0  0  0  0  0  0  0  0  0  0  0
  -14.4267   -1.5686  -22.6012 H   0  0  0  0  0  0  0  0  0  0  0  0
  -10.6228   -3.0117  -21.3105 H   0  0  0  0  0  0  0  0  0  0  0  0
   -8.7963   -1.4437  -25.1264 H   0  0  0  0  0  0  0  0  0  0  0  0
   -7.5481   -0.5351  -24.2322 H   0  0  0  0  0  0  0  0  0  0  0  0
   -7.9592    1.3520  -25.7920 H   0  0  0  0  0  0  0  0  0  0  0  0
   -9.3541    2.3414  -25.2817 H   0  0  0  0  0  0  0  0  0  0  0  0
   -9.2044    2.8877  -22.7659 H   0  0  0  0  0  0  0  0  0  0  0  0
   -7.9883    3.8573  -21.0584 H   0  0  0  0  0  0  0  0  0  0  0  0
   -6.6558    4.1697  -22.1817 H   0  0  0  0  0  0  0  0  0  0  0  0
   -6.7715    2.5730  -21.4141 H   0  0  0  0  0  0  0  0  0  0  0  0
  1  2  1  0
  2  3  1  0
  3  4  2  0
  3  5  1  0
  5  6  1  0
  6  7  1  0
  8  7  1  6
  8  9  1  0
  9 10  2  0
  9 11  1  0
 11 12  1  0
 12 13  2  0
 13 14  1  0
 14 15  2  0
 15 16  1  0
 16 17  2  0
 17 18  1  0
 18 19  2  0
 19 20  1  0
 20 21  2  0
 20 22  1  0
 19 23  1  0
 18 24  1  0
 17 25  1  0
 15 26  1  0
 13 27  1  0
 11 28  1  0
 28 29  1  0
 29 30  1  0
 30 31  1  0
 31 32  1  0
 32 33  2  0
 33 34  1  0
 34 35  2  0
 35 36  1  0
 36 37  2  0
 36 38  1  0
 34 39  1  0
 33 40  1  0
 31 41  1  0
 30 42  1  0
 30 43  1  0
 29 44  1  1
 28 45  1  0
 28 46  1  0
  8 47  1  0
 47 48  2  0
 48 49  1  0
 49 50  1  0
 49 51  2  0
 51 52  1  0
 52 53  2  0
 53 54  1  0
 54 55  2  0
 52 56  1  0
 51 57  1  0
 48 58  1  0
  7 59  1  0
  7 60  1  0
  5 61  1  0
  5 62  1  0
  2 63  1  0
  1 64  1  0
  1 65  1  0
  1 66  1  0
 54  6  1  0
 29  8  1  0
 37 32  1  0
 53 47  1  0
 21 12  1  0
 21 16  1  0
M  END
>  <cnnaffinities>  (31) 
[6.26914]

>  <score>  (31) 
6.26914

>  <index>  (31) 
31

>  <Smiles>  (31) 
C(N(C(=O)C(N1C([C@@]2(C(=O)N(c3c(nc(c4c(c(c(c(c34)[H])[H])[H])[H])[H])[H])C([C@@]2(C(N(c2c(c(nc(n2)[H])[H])[H])[H])([H])[H])[H])([H])[H])c2c(c(Cl)c(c(c2C1=O)[H])[H])[H])([H])[H])([H])[H])[H])([H])([H])[H]

>  <h>  (31) 
<NA>

>  <Training>  (31) 
True

>  <Success>  (31) 
True

>  <enamine_searched>  (31) 
False

>  <enamine_id>  (31) 
nan

$$$$

     RDKit          3D

 57 62  0  0  0  0  0  0  0  0999 V2000
   -7.4952   -3.5265  -23.8292 C   0  0  0  0  0  0  0  0  0  0  0  0
   -8.3753   -2.9554  -22.7050 C   0  0  1  0  0  0  0  0  0  0  0  0
   -7.5920   -2.7884  -21.3814 C   0  0  0  0  0  0  0  0  0  0  0  0
   -7.4076   -1.3590  -21.2398 N   0  0  0  0  0  0  0  0  0  0  0  0
   -6.6115   -0.8057  -20.2008 C   0  0  0  0  0  0  0  0  0  0  0  0
   -6.9157   -1.0605  -18.8869 C   0  0  0  0  0  0  0  0  0  0  0  0
   -6.2349   -0.5641  -17.8241 N   0  0  0  0  0  0  0  0  0  0  0  0
   -5.1979    0.1983  -18.0756 C   0  0  0  0  0  0  0  0  0  0  0  0
   -4.7412    0.5097  -19.3863 C   0  0  0  0  0  0  0  0  0  0  0  0
   -3.6031    1.3321  -19.6044 C   0  0  0  0  0  0  0  0  0  0  0  0
   -3.1686    1.5920  -20.8724 C   0  0  0  0  0  0  0  0  0  0  0  0
   -3.8360    1.0254  -21.9817 C   0  0  0  0  0  0  0  0  0  0  0  0
   -4.9459    0.2356  -21.7963 C   0  0  0  0  0  0  0  0  0  0  0  0
   -5.4450   -0.0218  -20.4921 C   0  0  0  0  0  0  0  0  0  0  0  0
   -5.4550   -0.2039  -22.6491 H   0  0  0  0  0  0  0  0  0  0  0  0
   -3.4845    1.2383  -22.9874 H   0  0  0  0  0  0  0  0  0  0  0  0
   -2.3131    2.2416  -21.0384 H   0  0  0  0  0  0  0  0  0  0  0  0
   -3.0973    1.7558  -18.7409 H   0  0  0  0  0  0  0  0  0  0  0  0
   -4.6556    0.6015  -17.2199 H   0  0  0  0  0  0  0  0  0  0  0  0
   -7.7720   -1.6848  -18.6344 H   0  0  0  0  0  0  0  0  0  0  0  0
   -8.2778   -0.6155  -22.0084 C   0  0  0  0  0  0  0  0  0  0  0  0
   -8.4281    0.5853  -21.9240 O   0  0  0  0  0  0  0  0  0  0  0  0
   -9.0407   -1.5634  -22.9644 C   0  0  1  0  0  0  0  0  0  0  0  0
   -8.8685   -1.0658  -24.4235 C   0  0  0  0  0  0  0  0  0  0  0  0
   -9.6014    0.1616  -24.6980 N   0  0  0  0  0  0  0  0  0  0  0  0
   -8.9767    1.1745  -25.5328 C   0  0  0  0  0  0  0  0  0  0  0  0
   -7.9324    1.9633  -24.8014 C   0  0  0  0  0  0  0  0  0  0  0  0
   -6.6288    1.8275  -24.9487 N   0  0  0  0  0  0  0  0  0  0  0  0
   -6.0646    2.7960  -24.2018 N   0  0  0  0  0  0  0  0  0  0  0  0
   -6.9619    3.4949  -23.6048 N   0  0  0  0  0  0  0  0  0  0  0  0
   -8.1532    2.9817  -23.9541 N   0  0  0  0  0  0  0  0  0  0  0  0
   -9.3893    3.5584  -23.4521 C   0  0  0  0  0  0  0  0  0  0  0  0
  -10.0923    3.7098  -24.2778 H   0  0  0  0  0  0  0  0  0  0  0  0
   -9.8391    2.9192  -22.6853 H   0  0  0  0  0  0  0  0  0  0  0  0
   -9.1286    4.5230  -23.0134 H   0  0  0  0  0  0  0  0  0  0  0  0
   -8.4856    0.7037  -26.3919 H   0  0  0  0  0  0  0  0  0  0  0  0
   -9.7746    1.8211  -25.9111 H   0  0  0  0  0  0  0  0  0  0  0  0
  -10.8982    0.3241  -24.3117 C   0  0  0  0  0  0  0  0  0  0  0  0
  -11.6040    1.2469  -24.7082 O   0  0  0  0  0  0  0  0  0  0  0  0
  -11.4063   -0.7108  -23.3525 C   0  0  0  0  0  0  0  0  0  0  0  0
  -12.7840   -0.7725  -23.1688 C   0  0  0  0  0  0  0  0  0  0  0  0
  -13.3315   -1.6622  -22.2704 C   0  0  0  0  0  0  0  0  0  0  0  0
  -12.4697   -2.4195  -21.5011 C   0  0  0  0  0  0  0  0  0  0  0  0
  -13.0284   -3.1929  -20.5508 F   0  0  0  0  0  0  0  0  0  0  0  0
  -11.1026   -2.4315  -21.6983 C   0  0  0  0  0  0  0  0  0  0  0  0
  -10.5405   -1.5721  -22.6602 C   0  0  0  0  0  0  0  0  0  0  0  0
  -10.4968   -3.1292  -21.1245 H   0  0  0  0  0  0  0  0  0  0  0  0
  -14.4000   -1.7905  -22.1176 H   0  0  0  0  0  0  0  0  0  0  0  0
  -13.4082   -0.0821  -23.7254 H   0  0  0  0  0  0  0  0  0  0  0  0
   -7.8161   -0.8529  -24.6197 H   0  0  0  0  0  0  0  0  0  0  0  0
   -9.2116   -1.8602  -25.1011 H   0  0  0  0  0  0  0  0  0  0  0  0
   -8.1591   -3.1953  -20.5310 H   0  0  0  0  0  0  0  0  0  0  0  0
   -6.6156   -3.2878  -21.4045 H   0  0  0  0  0  0  0  0  0  0  0  0
   -9.1678   -3.6986  -22.5725 H   0  0  0  0  0  0  0  0  0  0  0  0
   -8.0735   -3.6911  -24.7455 H   0  0  0  0  0  0  0  0  0  0  0  0
   -7.1019   -4.5045  -23.5264 H   0  0  0  0  0  0  0  0  0  0  0  0
   -6.6413   -2.8825  -24.0711 H   0  0  0  0  0  0  0  0  0  0  0  0
  1  2  1  0
  2  3  1  0
  3  4  1  0
  4  5  1  0
  5  6  2  0
  6  7  1  0
  7  8  2  0
  8  9  1  0
  9 10  2  0
 10 11  1  0
 11 12  2  0
 12 13  1  0
 13 14  2  0
 13 15  1  0
 12 16  1  0
 11 17  1  0
 10 18  1  0
  8 19  1  0
  6 20  1  0
  4 21  1  0
 21 22  2  0
 21 23  1  0
 23 24  1  6
 24 25  1  0
 25 26  1  0
 26 27  1  0
 27 28  2  0
 28 29  1  0
 29 30  2  0
 30 31  1  0
 31 32  1  0
 32 33  1  0
 32 34  1  0
 32 35  1  0
 26 36  1  0
 26 37  1  0
 25 38  1  0
 38 39  2  0
 38 40  1  0
 40 41  2  0
 41 42  1  0
 42 43  2  0
 43 44  1  0
 43 45  1  0
 45 46  2  0
 45 47  1  0
 42 48  1  0
 41 49  1  0
 24 50  1  0
 24 51  1  0
  3 52  1  0
  3 53  1  0
  2 54  1  1
  1 55  1  0
  1 56  1  0
  1 57  1  0
 23  2  1  0
 31 27  1  0
 46 40  1  0
 14  5  1  0
 46 23  1  0
 14  9  1  0
M  END
>  <cnnaffinities>  (32) 
[6.19754]

>  <score>  (32) 
6.19754

>  <index>  (32) 
32

>  <Smiles>  (32) 
C([C@]1(C(N(c2c(nc(c3c(c(c(c(c23)[H])[H])[H])[H])[H])[H])C(=O)[C@]21C(N(C(c1nnnn1C([H])([H])[H])([H])[H])C(=O)c1c(c(c(F)c(c21)[H])[H])[H])([H])[H])([H])[H])[H])([H])([H])[H]

>  <h>  (32) 
<NA>

>  <Training>  (32) 
True

>  <Success>  (32) 
True

>  <enamine_searched>  (32) 
False

>  <enamine_id>  (32) 
nan

$$$$

     RDKit          3D

 66 70  0  0  0  0  0  0  0  0999 V2000
   -7.4362    3.3707  -21.7679 C   0  0  0  0  0  0  0  0  0  0  0  0
   -8.3628    2.9530  -22.7960 N   0  0  0  0  0  0  0  0  0  0  0  0
   -7.8351    2.2476  -23.8251 C   0  0  0  0  0  0  0  0  0  0  0  0
   -6.6271    2.1047  -23.9434 O   0  0  0  0  0  0  0  0  0  0  0  0
   -8.7995    1.6448  -24.8321 C   0  0  0  0  0  0  0  0  0  0  0  0
   -9.4636    0.4622  -24.3287 N   0  0  0  0  0  0  0  0  0  0  0  0
   -8.6978   -0.7614  -24.1703 C   0  0  0  0  0  0  0  0  0  0  0  0
   -9.0656   -1.5171  -22.8731 C   0  0  2  0  0  0  0  0  0  0  0  0
   -8.5409   -0.7522  -21.6403 C   0  0  0  0  0  0  0  0  0  0  0  0
   -9.0158    0.2422  -21.1328 O   0  0  0  0  0  0  0  0  0  0  0  0
   -7.4045   -1.3826  -21.1909 N   0  0  0  0  0  0  0  0  0  0  0  0
   -6.6039   -0.8109  -20.1708 C   0  0  0  0  0  0  0  0  0  0  0  0
   -6.9187   -1.0410  -18.8567 C   0  0  0  0  0  0  0  0  0  0  0  0
   -6.2207   -0.5451  -17.8060 N   0  0  0  0  0  0  0  0  0  0  0  0
   -5.1797    0.2065  -18.0759 C   0  0  0  0  0  0  0  0  0  0  0  0
   -4.7378    0.5191  -19.3929 C   0  0  0  0  0  0  0  0  0  0  0  0
   -3.6120    1.3519  -19.6382 C   0  0  0  0  0  0  0  0  0  0  0  0
   -3.2268    1.6502  -20.9162 C   0  0  0  0  0  0  0  0  0  0  0  0
   -3.9519    1.1335  -22.0157 C   0  0  0  0  0  0  0  0  0  0  0  0
   -5.0463    0.3275  -21.8066 C   0  0  0  0  0  0  0  0  0  0  0  0
   -5.4677   -0.0029  -20.4884 C   0  0  0  0  0  0  0  0  0  0  0  0
   -5.6100   -0.0355  -22.6613 H   0  0  0  0  0  0  0  0  0  0  0  0
   -3.6579    1.3881  -23.0299 H   0  0  0  0  0  0  0  0  0  0  0  0
   -2.3728    2.3006  -21.0939 H   0  0  0  0  0  0  0  0  0  0  0  0
   -3.0805    1.7627  -18.7832 H   0  0  0  0  0  0  0  0  0  0  0  0
   -4.6169    0.6050  -17.2289 H   0  0  0  0  0  0  0  0  0  0  0  0
   -7.7804   -1.6584  -18.6090 H   0  0  0  0  0  0  0  0  0  0  0  0
   -7.0407   -2.5655  -21.9414 C   0  0  0  0  0  0  0  0  0  0  0  0
   -8.3019   -2.8714  -22.7641 C   0  0  2  0  0  0  0  0  0  0  0  0
   -7.9764   -3.6059  -24.0705 C   0  0  0  0  0  0  0  0  0  0  0  0
   -9.1321   -3.9152  -24.8162 O   0  0  0  0  0  0  0  0  0  0  0  0
   -9.6991   -5.1960  -24.5686 C   0  0  0  0  0  0  0  0  0  0  0  0
  -11.1958   -5.0549  -24.7537 C   0  0  0  0  0  0  0  0  0  0  0  0
  -11.6974   -6.0098  -24.5613 H   0  0  0  0  0  0  0  0  0  0  0  0
  -11.6027   -4.2974  -24.0770 H   0  0  0  0  0  0  0  0  0  0  0  0
  -11.4130   -4.7447  -25.7799 H   0  0  0  0  0  0  0  0  0  0  0  0
   -9.0960   -6.2321  -25.5053 C   0  0  0  0  0  0  0  0  0  0  0  0
   -9.5478   -7.2141  -25.3382 H   0  0  0  0  0  0  0  0  0  0  0  0
   -8.0169   -6.3318  -25.3589 H   0  0  0  0  0  0  0  0  0  0  0  0
   -9.2729   -5.9428  -26.5445 H   0  0  0  0  0  0  0  0  0  0  0  0
   -9.4899   -5.4828  -23.5301 H   0  0  0  0  0  0  0  0  0  0  0  0
   -7.4055   -4.5218  -23.8523 H   0  0  0  0  0  0  0  0  0  0  0  0
   -7.3381   -2.9767  -24.7064 H   0  0  0  0  0  0  0  0  0  0  0  0
   -8.9494   -3.5322  -22.1830 H   0  0  0  0  0  0  0  0  0  0  0  0
   -6.1749   -2.3728  -22.5917 H   0  0  0  0  0  0  0  0  0  0  0  0
   -6.7683   -3.3808  -21.2647 H   0  0  0  0  0  0  0  0  0  0  0  0
  -10.5773   -1.6185  -22.8159 C   0  0  0  0  0  0  0  0  0  0  0  0
  -11.1932   -2.5256  -21.9445 C   0  0  0  0  0  0  0  0  0  0  0  0
  -12.5733   -2.5570  -21.8418 C   0  0  0  0  0  0  0  0  0  0  0  0
  -13.3311   -3.6263  -20.6938 Cl  0  0  0  0  0  0  0  0  0  0  0  0
  -13.3883   -1.7255  -22.6134 C   0  0  0  0  0  0  0  0  0  0  0  0
  -12.7893   -0.7938  -23.4374 C   0  0  0  0  0  0  0  0  0  0  0  0
  -11.4003   -0.7116  -23.5009 C   0  0  0  0  0  0  0  0  0  0  0  0
  -10.8254    0.4575  -24.2355 C   0  0  0  0  0  0  0  0  0  0  0  0
  -11.5319    1.3545  -24.6848 O   0  0  0  0  0  0  0  0  0  0  0  0
  -13.3677   -0.0700  -24.0059 H   0  0  0  0  0  0  0  0  0  0  0  0
  -14.4661   -1.7990  -22.5137 H   0  0  0  0  0  0  0  0  0  0  0  0
  -10.5992   -3.1761  -21.3101 H   0  0  0  0  0  0  0  0  0  0  0  0
   -8.8941   -1.4320  -25.0149 H   0  0  0  0  0  0  0  0  0  0  0  0
   -7.6387   -0.4917  -24.1659 H   0  0  0  0  0  0  0  0  0  0  0  0
   -9.5952    2.3431  -25.0972 H   0  0  0  0  0  0  0  0  0  0  0  0
   -8.1883    1.4012  -25.7039 H   0  0  0  0  0  0  0  0  0  0  0  0
   -9.3216    2.8056  -22.5227 H   0  0  0  0  0  0  0  0  0  0  0  0
   -6.8144    2.5309  -21.4582 H   0  0  0  0  0  0  0  0  0  0  0  0
   -6.7669    4.1317  -22.1545 H   0  0  0  0  0  0  0  0  0  0  0  0
   -7.9728    3.7692  -20.9141 H   0  0  0  0  0  0  0  0  0  0  0  0
  1  2  1  0
  2  3  1  0
  3  4  2  0
  3  5  1  0
  5  6  1  0
  6  7  1  0
  8  7  1  6
  8  9  1  0
  9 10  2  0
  9 11  1  0
 11 12  1  0
 12 13  2  0
 13 14  1  0
 14 15  2  0
 15 16  1  0
 16 17  2  0
 17 18  1  0
 18 19  2  0
 19 20  1  0
 20 21  2  0
 20 22  1  0
 19 23  1  0
 18 24  1  0
 17 25  1  0
 15 26  1  0
 13 27  1  0
 11 28  1  0
 28 29  1  0
 29 30  1  0
 30 31  1  0
 31 32  1  0
 32 33  1  0
 33 34  1  0
 33 35  1  0
 33 36  1  0
 32 37  1  0
 37 38  1  0
 37 39  1  0
 37 40  1  0
 32 41  1  0
 30 42  1  0
 30 43  1  0
 29 44  1  1
 28 45  1  0
 28 46  1  0
  8 47  1  0
 47 48  2  0
 48 49  1  0
 49 50  1  0
 49 51  2  0
 51 52  1  0
 52 53  2  0
 53 54  1  0
 54 55  2  0
 52 56  1  0
 51 57  1  0
 48 58  1  0
  7 59  1  0
  7 60  1  0
  5 61  1  0
  5 62  1  0
  2 63  1  0
  1 64  1  0
  1 65  1  0
  1 66  1  0
 54  6  1  0
 29  8  1  0
 53 47  1  0
 21 12  1  0
 21 16  1  0
M  END
>  <cnnaffinities>  (33) 
[6.5446]

>  <score>  (33) 
6.5446

>  <index>  (33) 
34

>  <Smiles>  (33) 
C(N(C(=O)C(N1C([C@@]2(C(=O)N(c3c(nc(c4c(c(c(c(c34)[H])[H])[H])[H])[H])[H])C([C@@]2(C(OC(C([H])([H])[H])(C([H])([H])[H])[H])([H])[H])[H])([H])[H])c2c(c(Cl)c(c(c2C1=O)[H])[H])[H])([H])[H])([H])[H])[H])([H])([H])[H]

>  <h>  (33) 
<NA>

>  <Training>  (33) 
True

>  <Success>  (33) 
True

>  <enamine_searched>  (33) 
False

>  <enamine_id>  (33) 
nan

$$$$

     RDKit          3D

 40 42  0  0  0  0  0  0  0  0999 V2000
   -9.2445   -1.8380  -22.5806 O   0  0  0  0  0  0  0  0  0  0  0  0
   -8.3282   -1.0758  -22.2889 C   0  0  0  0  0  0  0  0  0  0  0  0
   -6.9739   -1.6076  -21.8308 C   0  0  0  0  0  0  0  0  0  0  0  0
   -6.3787   -0.9019  -20.6264 C   0  0  0  0  0  0  0  0  0  0  0  0
   -6.9879   -1.0354  -19.4020 C   0  0  0  0  0  0  0  0  0  0  0  0
   -6.5373   -0.4987  -18.2394 N   0  0  0  0  0  0  0  0  0  0  0  0
   -5.4501    0.2324  -18.3037 C   0  0  0  0  0  0  0  0  0  0  0  0
   -4.7273    0.4859  -19.5026 C   0  0  0  0  0  0  0  0  0  0  0  0
   -3.6030    1.3502  -19.5455 C   0  0  0  0  0  0  0  0  0  0  0  0
   -2.9589    1.6052  -20.7264 C   0  0  0  0  0  0  0  0  0  0  0  0
   -3.4061    1.0040  -21.9213 C   0  0  0  0  0  0  0  0  0  0  0  0
   -4.4966    0.1670  -21.9072 C   0  0  0  0  0  0  0  0  0  0  0  0
   -5.1911   -0.1109  -20.7008 C   0  0  0  0  0  0  0  0  0  0  0  0
   -4.8578   -0.2368  -22.8492 H   0  0  0  0  0  0  0  0  0  0  0  0
   -2.8971    1.2171  -22.8564 H   0  0  0  0  0  0  0  0  0  0  0  0
   -2.1137    2.2873  -20.7602 H   0  0  0  0  0  0  0  0  0  0  0  0
   -3.2829    1.8290  -18.6236 H   0  0  0  0  0  0  0  0  0  0  0  0
   -5.0953    0.6715  -17.3695 H   0  0  0  0  0  0  0  0  0  0  0  0
   -7.9085   -1.6199  -19.3213 H   0  0  0  0  0  0  0  0  0  0  0  0
   -7.1583   -2.6572  -21.5875 H   0  0  0  0  0  0  0  0  0  0  0  0
   -6.2740   -1.5939  -22.6702 H   0  0  0  0  0  0  0  0  0  0  0  0
   -8.3987    0.2981  -22.2965 N   0  0  0  0  0  0  0  0  0  0  0  0
   -9.5890    0.9470  -21.6912 C   0  0  0  0  0  0  0  0  0  0  0  0
   -9.5710    1.0982  -21.8694 C   0  0  0  0  0  0  0  0  0  0  0  0
   -9.2426    2.8700  -23.6023 C   0  0  0  0  0  0  0  0  0  0  0  0
   -8.3760    5.3212  -22.8609 C   0  0  0  0  0  0  0  0  0  0  0  0
   -7.4484    5.6996  -23.7193 F   0  0  0  0  0  0  0  0  0  0  0  0
   -9.2113    6.3008  -22.6086 F   0  0  0  0  0  0  0  0  0  0  0  0
   -7.8261    4.8909  -21.7451 F   0  0  0  0  0  0  0  0  0  0  0  0
   -7.9833    2.4425  -23.5985 C   0  0  0  0  0  0  0  0  0  0  0  0
   -7.4401    1.1384  -23.0629 C   0  0  0  0  0  0  0  0  0  0  0  0
   -7.0599    0.5552  -23.9059 H   0  0  0  0  0  0  0  0  0  0  0  0
   -6.5901    1.3639  -22.4073 H   0  0  0  0  0  0  0  0  0  0  0  0
  -10.0584    2.1861  -23.4610 H   0  0  0  0  0  0  0  0  0  0  0  0
   -7.1934    3.0572  -24.0316 H   0  0  0  0  0  0  0  0  0  0  0  0
   -9.4452    3.9319  -23.7616 H   0  0  0  0  0  0  0  0  0  0  0  0
  -10.4892    1.8674  -21.6266 H   0  0  0  0  0  0  0  0  0  0  0  0
   -8.8504    1.9447  -21.3563 H   0  0  0  0  0  0  0  0  0  0  0  0
   -9.8662    0.1195  -20.4067 H   0  0  0  0  0  0  0  0  0  0  0  0
  -10.3398    0.5876  -22.6685 H   0  0  0  0  0  0  0  0  0  0  0  0
  1  2  2  0
  2  3  1  0
  3  4  1  0
  4  5  2  0
  5  6  1  0
  6  7  2  0
  7  8  1  0
  8  9  2  0
  9 10  1  0
 10 11  2  0
 11 12  1  0
 12 13  2  0
 12 14  1  0
 11 15  1  0
 10 16  1  0
  9 17  1  0
  7 18  1  0
  5 19  1  0
  3 20  1  0
  3 21  1  0
  2 22  1  0
 22 23  1  0
 23 24  1  0
 24 25  1  0
 25 26  1  0
 26 27  1  0
 26 28  1  0
 26 29  1  0
 25 30  1  0
 30 31  1  0
 31 32  1  0
 31 33  1  0
 30 34  1  0
 30 35  1  0
 25 36  1  0
 24 37  1  0
 24 38  1  0
 23 39  1  0
 23 40  1  0
 13  4  1  0
 31 22  1  0
 13  8  1  0
M  END
>  <cnnaffinities>  (34) 
[4.79581]

>  <score>  (34) 
4.79581

>  <index>  (34) 
35

>  <Smiles>  (34) 
O=C(C(c1c(nc(c2c(c(c(c(c12)[H])[H])[H])[H])[H])[H])([H])[H])N1C(C(C(C(F)(F)F)(C(C1([H])[H])([H])[H])[H])([H])[H])([H])[H]

>  <h>  (34) 
<NA>

>  <Training>  (34) 
True

>  <Success>  (34) 
True

>  <enamine_searched>  (34) 
False

>  <enamine_id>  (34) 
nan

$$$$

     RDKit          3D

 47 50  0  0  0  0  0  0  0  0999 V2000
   -6.0955   -3.4663  -21.2117 O   0  0  0  0  0  0  0  0  0  0  0  0
   -6.6477   -2.6584  -21.9365 C   0  0  0  0  0  0  0  0  0  0  0  0
   -7.3876   -1.4604  -21.2912 C   0  0  0  0  0  0  0  0  0  0  0  0
   -6.5776   -0.8246  -20.1803 C   0  0  0  0  0  0  0  0  0  0  0  0
   -6.8730   -1.0457  -18.8593 C   0  0  0  0  0  0  0  0  0  0  0  0
   -6.1900   -0.5391  -17.7944 N   0  0  0  0  0  0  0  0  0  0  0  0
   -5.1580    0.2228  -18.0644 C   0  0  0  0  0  0  0  0  0  0  0  0
   -4.7208    0.5322  -19.3801 C   0  0  0  0  0  0  0  0  0  0  0  0
   -3.5907    1.3541  -19.6229 C   0  0  0  0  0  0  0  0  0  0  0  0
   -3.1929    1.6347  -20.9016 C   0  0  0  0  0  0  0  0  0  0  0  0
   -3.9091    1.0958  -21.9942 C   0  0  0  0  0  0  0  0  0  0  0  0
   -5.0057    0.2962  -21.7877 C   0  0  0  0  0  0  0  0  0  0  0  0
   -5.4473   -0.0039  -20.4723 C   0  0  0  0  0  0  0  0  0  0  0  0
   -5.5413   -0.1096  -22.6417 H   0  0  0  0  0  0  0  0  0  0  0  0
   -3.5899    1.3261  -23.0055 H   0  0  0  0  0  0  0  0  0  0  0  0
   -2.3344    2.2757  -21.0868 H   0  0  0  0  0  0  0  0  0  0  0  0
   -3.0582    1.7728  -18.7723 H   0  0  0  0  0  0  0  0  0  0  0  0
   -4.6029    0.6281  -17.2157 H   0  0  0  0  0  0  0  0  0  0  0  0
   -7.7210   -1.6700  -18.5839 H   0  0  0  0  0  0  0  0  0  0  0  0
   -8.3129   -1.8618  -20.8611 H   0  0  0  0  0  0  0  0  0  0  0  0
   -7.6903   -0.7081  -22.0274 H   0  0  0  0  0  0  0  0  0  0  0  0
   -6.6099   -2.7865  -23.3143 N   0  0  0  0  0  0  0  0  0  0  0  0
   -5.5553   -3.6037  -23.9105 C   0  0  0  0  0  0  0  0  0  0  0  0
   -6.0966   -4.6261  -24.9082 C   0  0  0  0  0  0  0  0  0  0  0  0
   -7.0953   -4.0158  -25.9089 C   0  0  0  0  0  0  0  0  0  0  0  0
   -7.2803   -2.5175  -25.6784 C   0  0  0  0  0  0  0  0  0  0  0  0
   -7.5706   -2.1511  -24.2128 C   0  0  1  0  0  0  0  0  0  0  0  0
   -9.0171   -2.4567  -23.8373 C   0  0  0  0  0  0  0  0  0  0  0  0
   -9.4036   -3.7233  -23.4007 C   0  0  0  0  0  0  0  0  0  0  0  0
  -10.7325   -3.9930  -23.0926 C   0  0  0  0  0  0  0  0  0  0  0  0
  -11.7021   -3.0047  -23.2271 C   0  0  0  0  0  0  0  0  0  0  0  0
  -11.3335   -1.7450  -23.6883 C   0  0  0  0  0  0  0  0  0  0  0  0
  -10.0009   -1.4778  -23.9963 C   0  0  0  0  0  0  0  0  0  0  0  0
   -9.7308   -0.4898  -24.3641 H   0  0  0  0  0  0  0  0  0  0  0  0
  -12.0839   -0.9670  -23.7976 H   0  0  0  0  0  0  0  0  0  0  0  0
  -12.7364   -3.2199  -22.9729 H   0  0  0  0  0  0  0  0  0  0  0  0
  -11.0066   -4.9817  -22.7406 H   0  0  0  0  0  0  0  0  0  0  0  0
   -8.6606   -4.5084  -23.2924 H   0  0  0  0  0  0  0  0  0  0  0  0
   -7.4415   -1.0634  -24.1374 H   0  0  0  0  0  0  0  0  0  0  0  0
   -6.4027   -1.9663  -26.0312 H   0  0  0  0  0  0  0  0  0  0  0  0
   -8.1070   -2.1551  -26.2916 H   0  0  0  0  0  0  0  0  0  0  0  0
   -8.0665   -4.5165  -25.8210 H   0  0  0  0  0  0  0  0  0  0  0  0
   -6.7641   -4.1825  -26.9395 H   0  0  0  0  0  0  0  0  0  0  0  0
   -5.2517   -5.0748  -25.4388 H   0  0  0  0  0  0  0  0  0  0  0  0
   -6.5703   -5.4447  -24.3603 H   0  0  0  0  0  0  0  0  0  0  0  0
   -4.8294   -2.9464  -24.4097 H   0  0  0  0  0  0  0  0  0  0  0  0
   -5.0277   -4.1013  -23.0998 H   0  0  0  0  0  0  0  0  0  0  0  0
  1  2  2  0
  2  3  1  0
  3  4  1  0
  4  5  2  0
  5  6  1  0
  6  7  2  0
  7  8  1  0
  8  9  2  0
  9 10  1  0
 10 11  2  0
 11 12  1  0
 12 13  2  0
 12 14  1  0
 11 15  1  0
 10 16  1  0
  9 17  1  0
  7 18  1  0
  5 19  1  0
  3 20  1  0
  3 21  1  0
  2 22  1  0
 22 23  1  0
 23 24  1  0
 24 25  1  0
 25 26  1  0
 26 27  1  0
 27 28  1  0
 28 29  2  0
 29 30  1  0
 30 31  2  0
 31 32  1  0
 32 33  2  0
 33 34  1  0
 32 35  1  0
 31 36  1  0
 30 37  1  0
 29 38  1  0
 27 39  1  6
 26 40  1  0
 26 41  1  0
 25 42  1  0
 25 43  1  0
 24 44  1  0
 24 45  1  0
 23 46  1  0
 23 47  1  0
 13  4  1  0
 27 22  1  0
 33 28  1  0
 13  8  1  0
M  END
>  <cnnaffinities>  (35) 
[5.62549, 5.622, 5.08182, 5.08166, 5.3425, 5.34392, 4.9368, 4.93665, 5.22064]

>  <score>  (35) 
5.62549

>  <index>  (35) 
36

>  <Smiles>  (35) 
O=C(C(c1c(nc(c2c(c(c(c(c12)[H])[H])[H])[H])[H])[H])([H])[H])N1C(C(C(C([C@]1(c1c(c(c(c(c1[H])[H])[H])[H])[H])[H])([H])[H])([H])[H])([H])[H])([H])[H]

>  <h>  (35) 
<NA>

>  <Training>  (35) 
True

>  <Success>  (35) 
True

>  <enamine_searched>  (35) 
False

>  <enamine_id>  (35) 
nan

$$$$

     RDKit          3D

 56 60  0  0  0  0  0  0  0  0999 V2000
  -14.5661   -1.4194  -23.9550 C   0  0  0  0  0  0  0  0  0  0  0  0
  -13.7282   -2.5144  -23.5247 N   0  0  0  0  0  0  0  0  0  0  0  0
  -13.3123   -2.5379  -22.2347 C   0  0  0  0  0  0  0  0  0  0  0  0
  -13.5169   -1.6009  -21.4752 O   0  0  0  0  0  0  0  0  0  0  0  0
  -12.5339   -3.7731  -21.8033 C   0  0  0  0  0  0  0  0  0  0  0  0
  -11.1728   -3.8130  -22.3198 N   0  0  0  0  0  0  0  0  0  0  0  0
  -10.0717   -3.2858  -21.5168 C   0  0  0  0  0  0  0  0  0  0  0  0
   -8.8333   -2.8608  -22.3511 C   0  0  2  0  0  0  0  0  0  0  0  0
   -7.6898   -2.6849  -21.3514 C   0  0  0  0  0  0  0  0  0  0  0  0
   -7.1432   -3.5630  -20.7155 O   0  0  0  0  0  0  0  0  0  0  0  0
   -7.3707   -1.3471  -21.2546 N   0  0  0  0  0  0  0  0  0  0  0  0
   -6.5709   -0.8745  -20.1943 C   0  0  0  0  0  0  0  0  0  0  0  0
   -6.8946   -1.1435  -18.8898 C   0  0  0  0  0  0  0  0  0  0  0  0
   -6.2510   -0.5990  -17.8285 N   0  0  0  0  0  0  0  0  0  0  0  0
   -5.2387    0.1984  -18.0812 C   0  0  0  0  0  0  0  0  0  0  0  0
   -4.7681    0.5115  -19.3906 C   0  0  0  0  0  0  0  0  0  0  0  0
   -3.6414    1.3413  -19.6274 C   0  0  0  0  0  0  0  0  0  0  0  0
   -3.2367    1.6072  -20.9083 C   0  0  0  0  0  0  0  0  0  0  0  0
   -3.9299    1.0604  -22.0129 C   0  0  0  0  0  0  0  0  0  0  0  0
   -5.0193    0.2505  -21.8103 C   0  0  0  0  0  0  0  0  0  0  0  0
   -5.4583   -0.0347  -20.4904 C   0  0  0  0  0  0  0  0  0  0  0  0
   -5.5519   -0.1908  -22.6477 H   0  0  0  0  0  0  0  0  0  0  0  0
   -3.6016    1.2847  -23.0242 H   0  0  0  0  0  0  0  0  0  0  0  0
   -2.3773    2.2467  -21.0864 H   0  0  0  0  0  0  0  0  0  0  0  0
   -3.1194    1.7621  -18.7726 H   0  0  0  0  0  0  0  0  0  0  0  0
   -4.7287    0.6350  -17.2225 H   0  0  0  0  0  0  0  0  0  0  0  0
   -7.7201   -1.8140  -18.6565 H   0  0  0  0  0  0  0  0  0  0  0  0
   -8.3595   -0.4898  -21.8909 C   0  0  0  0  0  0  0  0  0  0  0  0
   -8.9702   -1.4138  -22.9526 C   0  0  2  0  0  0  0  0  0  0  0  0
  -10.3877   -1.0312  -23.3531 C   0  0  0  0  0  0  0  0  0  0  0  0
  -10.7816   -1.7686  -24.0597 H   0  0  0  0  0  0  0  0  0  0  0  0
  -10.4334   -0.0434  -23.8179 H   0  0  0  0  0  0  0  0  0  0  0  0
  -11.0420   -1.0051  -22.4743 H   0  0  0  0  0  0  0  0  0  0  0  0
   -8.3152   -1.3865  -23.8351 H   0  0  0  0  0  0  0  0  0  0  0  0
   -9.1161   -0.1558  -21.1615 H   0  0  0  0  0  0  0  0  0  0  0  0
   -7.8957    0.4111  -22.3056 H   0  0  0  0  0  0  0  0  0  0  0  0
   -8.5359   -3.9205  -23.3913 C   0  0  0  0  0  0  0  0  0  0  0  0
   -7.2484   -4.1244  -23.9114 C   0  0  0  0  0  0  0  0  0  0  0  0
   -7.0321   -5.0827  -24.8945 C   0  0  0  0  0  0  0  0  0  0  0  0
   -8.0864   -5.8882  -25.3373 C   0  0  0  0  0  0  0  0  0  0  0  0
   -9.3632   -5.6802  -24.8504 C   0  0  0  0  0  0  0  0  0  0  0  0
   -9.5881   -4.6700  -23.9231 C   0  0  0  0  0  0  0  0  0  0  0  0
  -10.9992   -4.3836  -23.5417 C   0  0  0  0  0  0  0  0  0  0  0  0
  -11.9504   -4.6499  -24.2767 O   0  0  0  0  0  0  0  0  0  0  0  0
  -10.2146   -6.2815  -25.1594 H   0  0  0  0  0  0  0  0  0  0  0  0
   -7.9109   -6.6774  -26.0617 H   0  0  0  0  0  0  0  0  0  0  0  0
   -6.0358   -5.2190  -25.3104 H   0  0  0  0  0  0  0  0  0  0  0  0
   -6.4040   -3.5594  -23.5171 H   0  0  0  0  0  0  0  0  0  0  0  0
  -10.4060   -2.4036  -20.9538 H   0  0  0  0  0  0  0  0  0  0  0  0
   -9.7550   -4.0319  -20.7790 H   0  0  0  0  0  0  0  0  0  0  0  0
  -12.5117   -3.8309  -20.7102 H   0  0  0  0  0  0  0  0  0  0  0  0
  -13.0635   -4.6359  -22.2175 H   0  0  0  0  0  0  0  0  0  0  0  0
  -13.4018   -3.2110  -24.1807 H   0  0  0  0  0  0  0  0  0  0  0  0
  -14.0187   -0.4739  -23.9872 H   0  0  0  0  0  0  0  0  0  0  0  0
  -15.3690   -1.2803  -23.2311 H   0  0  0  0  0  0  0  0  0  0  0  0
  -14.9839   -1.6448  -24.9381 H   0  0  0  0  0  0  0  0  0  0  0  0
  1  2  1  0
  2  3  1  0
  3  4  2  0
  3  5  1  0
  5  6  1  0
  6  7  1  0
  8  7  1  1
  8  9  1  0
  9 10  2  0
  9 11  1  0
 11 12  1  0
 12 13  2  0
 13 14  1  0
 14 15  2  0
 15 16  1  0
 16 17  2  0
 17 18  1  0
 18 19  2  0
 19 20  1  0
 20 21  2  0
 20 22  1  0
 19 23  1  0
 18 24  1  0
 17 25  1  0
 15 26  1  0
 13 27  1  0
 11 28  1  0
 28 29  1  0
 29 30  1  0
 30 31  1  0
 30 32  1  0
 30 33  1  0
 29 34  1  6
 28 35  1  0
 28 36  1  0
  8 37  1  0
 37 38  2  0
 38 39  1  0
 39 40  2  0
 40 41  1  0
 41 42  2  0
 42 43  1  0
 43 44  2  0
 41 45  1  0
 40 46  1  0
 39 47  1  0
 38 48  1  0
  7 49  1  0
  7 50  1  0
  5 51  1  0
  5 52  1  0
  2 53  1  0
  1 54  1  0
  1 55  1  0
  1 56  1  0
 43  6  1  0
 29  8  1  0
 42 37  1  0
 21 12  1  0
 21 16  1  0
M  END
>  <cnnaffinities>  (36) 
[6.42338]

>  <score>  (36) 
6.42338

>  <index>  (36) 
37

>  <Smiles>  (36) 
C(N(C(=O)C(N1C([C@@]2(C(=O)N(c3c(nc(c4c(c(c(c(c34)[H])[H])[H])[H])[H])[H])C([C@@]2(C([H])([H])[H])[H])([H])[H])c2c(c(c(c(c2C1=O)[H])[H])[H])[H])([H])[H])([H])[H])[H])([H])([H])[H]

>  <h>  (36) 
<NA>

>  <Training>  (36) 
True

>  <Success>  (36) 
True

>  <enamine_searched>  (36) 
False

>  <enamine_id>  (36) 
nan

$$$$

     RDKit          3D

 46 48  0  0  0  0  0  0  0  0999 V2000
   -8.1583   -4.6948  -26.5426 C   0  0  0  0  0  0  0  0  0  0  0  0
   -8.6537   -4.9600  -25.1187 C   0  0  1  0  0  0  0  0  0  0  0  0
   -7.5892   -5.5252  -24.1814 C   0  0  0  0  0  0  0  0  0  0  0  0
   -6.6140   -4.5190  -23.5531 C   0  0  1  0  0  0  0  0  0  0  0  0
   -5.4117   -4.1593  -24.4402 C   0  0  0  0  0  0  0  0  0  0  0  0
   -4.6081   -3.7374  -23.8291 H   0  0  0  0  0  0  0  0  0  0  0  0
   -5.6631   -3.4317  -25.2148 H   0  0  0  0  0  0  0  0  0  0  0  0
   -5.0155   -5.0546  -24.9367 H   0  0  0  0  0  0  0  0  0  0  0  0
   -7.3250   -3.3381  -23.0135 N   0  0  0  0  0  0  0  0  0  0  0  0
   -6.7239   -2.7027  -21.9373 C   0  0  0  0  0  0  0  0  0  0  0  0
   -5.6789   -3.1170  -21.4631 O   0  0  0  0  0  0  0  0  0  0  0  0
   -7.4079   -1.4697  -21.2811 C   0  0  0  0  0  0  0  0  0  0  0  0
   -6.5780   -0.8348  -20.1848 C   0  0  0  0  0  0  0  0  0  0  0  0
   -6.8730   -1.0475  -18.8633 C   0  0  0  0  0  0  0  0  0  0  0  0
   -6.1920   -0.5407  -17.7981 N   0  0  0  0  0  0  0  0  0  0  0  0
   -5.1591    0.2215  -18.0657 C   0  0  0  0  0  0  0  0  0  0  0  0
   -4.7209    0.5279  -19.3812 C   0  0  0  0  0  0  0  0  0  0  0  0
   -3.5919    1.3532  -19.6238 C   0  0  0  0  0  0  0  0  0  0  0  0
   -3.1917    1.6324  -20.9024 C   0  0  0  0  0  0  0  0  0  0  0  0
   -3.9045    1.0912  -21.9948 C   0  0  0  0  0  0  0  0  0  0  0  0
   -5.0004    0.2893  -21.7871 C   0  0  0  0  0  0  0  0  0  0  0  0
   -5.4451   -0.0143  -20.4738 C   0  0  0  0  0  0  0  0  0  0  0  0
   -5.5348   -0.1231  -22.6375 H   0  0  0  0  0  0  0  0  0  0  0  0
   -3.5813    1.3179  -23.0061 H   0  0  0  0  0  0  0  0  0  0  0  0
   -2.3319    2.2729  -21.0864 H   0  0  0  0  0  0  0  0  0  0  0  0
   -3.0590    1.7733  -18.7734 H   0  0  0  0  0  0  0  0  0  0  0  0
   -4.6036    0.6277  -17.2167 H   0  0  0  0  0  0  0  0  0  0  0  0
   -7.7209   -1.6713  -18.5863 H   0  0  0  0  0  0  0  0  0  0  0  0
   -7.6716   -0.7128  -22.0317 H   0  0  0  0  0  0  0  0  0  0  0  0
   -8.3596   -1.8075  -20.8476 H   0  0  0  0  0  0  0  0  0  0  0  0
   -8.4100   -2.7194  -23.7937 C   0  0  1  0  0  0  0  0  0  0  0  0
   -7.9394   -1.6592  -24.8007 C   0  0  0  0  0  0  0  0  0  0  0  0
   -7.4432   -2.0881  -25.6754 H   0  0  0  0  0  0  0  0  0  0  0  0
   -8.7984   -1.0844  -25.1702 H   0  0  0  0  0  0  0  0  0  0  0  0
   -7.2437   -0.9498  -24.3425 H   0  0  0  0  0  0  0  0  0  0  0  0
   -9.3296   -3.7774  -24.4249 C   0  0  0  0  0  0  0  0  0  0  0  0
   -9.9789   -4.1702  -23.6352 H   0  0  0  0  0  0  0  0  0  0  0  0
   -9.9957   -3.2776  -25.1358 H   0  0  0  0  0  0  0  0  0  0  0  0
   -9.0326   -2.1948  -23.0631 H   0  0  0  0  0  0  0  0  0  0  0  0
   -6.1924   -5.0185  -22.6793 H   0  0  0  0  0  0  0  0  0  0  0  0
   -8.0924   -6.0558  -23.3657 H   0  0  0  0  0  0  0  0  0  0  0  0
   -7.0109   -6.2883  -24.7141 H   0  0  0  0  0  0  0  0  0  0  0  0
   -9.4272   -5.7361  -25.2233 H   0  0  0  0  0  0  0  0  0  0  0  0
   -7.9239   -5.6406  -27.0464 H   0  0  0  0  0  0  0  0  0  0  0  0
   -8.9307   -4.1943  -27.1379 H   0  0  0  0  0  0  0  0  0  0  0  0
   -7.2550   -4.0808  -26.5812 H   0  0  0  0  0  0  0  0  0  0  0  0
  1  2  1  0
  2  3  1  0
  3  4  1  0
  4  5  1  0
  5  6  1  0
  5  7  1  0
  5  8  1  0
  4  9  1  0
  9 10  1  0
 10 11  2  0
 10 12  1  0
 12 13  1  0
 13 14  2  0
 14 15  1  0
 15 16  2  0
 16 17  1  0
 17 18  2  0
 18 19  1  0
 19 20  2  0
 20 21  1  0
 21 22  2  0
 21 23  1  0
 20 24  1  0
 19 25  1  0
 18 26  1  0
 16 27  1  0
 14 28  1  0
 12 29  1  0
 12 30  1  0
  9 31  1  0
 31 32  1  0
 32 33  1  0
 32 34  1  0
 32 35  1  0
 31 36  1  0
 36 37  1  0
 36 38  1  0
 31 39  1  1
  4 40  1  1
  3 41  1  0
  3 42  1  0
  2 43  1  6
  1 44  1  0
  1 45  1  0
  1 46  1  0
 36  2  1  0
 22 13  1  0
 22 17  1  0
M  END
>  <cnnaffinities>  (37) 
[5.14803]

>  <score>  (37) 
5.14803

>  <index>  (37) 
38

>  <Smiles>  (37) 
C([C@]1(C([C@@](C([H])([H])[H])(N(C(=O)C(c2c(nc(c3c(c(c(c(c23)[H])[H])[H])[H])[H])[H])([H])[H])[C@@](C([H])([H])[H])(C1([H])[H])[H])[H])([H])[H])[H])([H])([H])[H]

>  <h>  (37) 
<NA>

>  <Training>  (37) 
True

>  <Success>  (37) 
True

>  <enamine_searched>  (37) 
False

>  <enamine_id>  (37) 
nan

$$$$

     RDKit          3D

 40 44  0  0  0  0  0  0  0  0999 V2000
   -7.2314    0.9540  -25.6019 C   0  0  0  0  0  0  0  0  0  0  0  0
   -6.4994   -0.3689  -25.4068 C   0  0  0  0  0  0  0  0  0  0  0  0
   -5.2976   -0.4698  -25.5831 O   0  0  0  0  0  0  0  0  0  0  0  0
   -7.2549   -1.4519  -25.0441 N   0  0  0  0  0  0  0  0  0  0  0  0
   -6.6456   -2.7646  -24.7205 C   0  0  0  0  0  0  0  0  0  0  0  0
   -7.8231   -3.4986  -24.0346 C   0  0  2  0  0  0  0  0  0  0  0  0
   -8.9946   -2.9681  -24.8673 C   0  0  0  0  0  0  0  0  0  0  0  0
   -8.6585   -1.5010  -24.5579 C   0  0  1  0  0  0  0  0  0  0  0  0
   -8.5988   -1.5841  -23.0830 C   0  0  0  0  0  0  0  0  0  0  0  0
   -8.1605   -0.6175  -22.1227 C   0  0  0  0  0  0  0  0  0  0  0  0
   -8.3117    0.5824  -22.0799 O   0  0  0  0  0  1  0  0  0  0  0  0
   -7.4076   -1.3983  -21.1902 N   0  0  0  0  0  0  0  0  0  0  0  0
   -6.5884   -0.8207  -20.1747 C   0  0  0  0  0  0  0  0  0  0  0  0
   -6.8833   -1.0542  -18.8572 C   0  0  0  0  0  0  0  0  0  0  0  0
   -6.1926   -0.5405  -17.8064 N   0  0  0  0  0  0  0  0  0  0  0  0
   -5.1612    0.2227  -18.0699 C   0  0  0  0  0  0  0  0  0  0  0  0
   -4.7216    0.5317  -19.3889 C   0  0  0  0  0  0  0  0  0  0  0  0
   -3.5870    1.3552  -19.6304 C   0  0  0  0  0  0  0  0  0  0  0  0
   -3.1885    1.6240  -20.9103 C   0  0  0  0  0  0  0  0  0  0  0  0
   -3.8927    1.0746  -22.0047 C   0  0  0  0  0  0  0  0  0  0  0  0
   -4.9852    0.2728  -21.7960 C   0  0  0  0  0  0  0  0  0  0  0  0
   -5.4442   -0.0078  -20.4804 C   0  0  0  0  0  0  0  0  0  0  0  0
   -5.5109   -0.1546  -22.6452 H   0  0  0  0  0  0  0  0  0  0  0  0
   -3.5720    1.2865  -23.0207 H   0  0  0  0  0  0  0  0  0  0  0  0
   -2.3293    2.2621  -21.0992 H   0  0  0  0  0  0  0  0  0  0  0  0
   -3.0540    1.7771  -18.7813 H   0  0  0  0  0  0  0  0  0  0  0  0
   -4.6064    0.6248  -17.2184 H   0  0  0  0  0  0  0  0  0  0  0  0
   -7.7367   -1.6746  -18.5988 H   0  0  0  0  0  0  0  0  0  0  0  0
   -7.2476   -2.7294  -21.6340 C   0  0  0  0  0  0  0  0  0  0  0  0
   -6.5251   -3.5746  -21.1624 O   0  0  0  0  0  0  0  0  0  0  0  0
   -8.0975   -2.8201  -22.7434 N   0  0  0  0  0  0  0  0  0  0  0  0
   -9.2949   -0.7198  -24.9741 H   0  0  0  0  0  0  0  0  0  0  0  0
   -9.9601   -3.2811  -24.4786 H   0  0  0  0  0  0  0  0  0  0  0  0
   -8.9155   -3.2079  -25.9300 H   0  0  0  0  0  0  0  0  0  0  0  0
   -7.7294   -4.5729  -23.9229 H   0  0  0  0  0  0  0  0  0  0  0  0
   -5.7864   -2.6790  -24.0512 H   0  0  0  0  0  0  0  0  0  0  0  0
   -6.3239   -3.2734  -25.6332 H   0  0  0  0  0  0  0  0  0  0  0  0
   -6.4989    1.6969  -25.9131 H   0  0  0  0  0  0  0  0  0  0  0  0
   -7.7135    1.2973  -24.6826 H   0  0  0  0  0  0  0  0  0  0  0  0
   -7.9966    0.8940  -26.3817 H   0  0  0  0  0  0  0  0  0  0  0  0
  1  2  1  0
  2  3  2  0
  2  4  1  0
  4  5  1  0
  5  6  1  0
  6  7  1  0
  7  8  1  0
  8  9  1  0
  9 10  2  0
 10 11  1  0
 10 12  1  0
 12 13  1  0
 13 14  2  0
 14 15  1  0
 15 16  2  0
 16 17  1  0
 17 18  2  0
 18 19  1  0
 19 20  2  0
 20 21  1  0
 21 22  2  0
 21 23  1  0
 20 24  1  0
 19 25  1  0
 18 26  1  0
 16 27  1  0
 14 28  1  0
 12 29  1  0
 29 30  2  0
 29 31  1  0
  8 32  1  1
  7 33  1  0
  7 34  1  0
  6 35  1  1
  5 36  1  0
  5 37  1  0
  1 38  1  0
  1 39  1  0
  1 40  1  0
  8  4  1  0
 31  9  1  0
 31  6  1  0
 22 13  1  0
 22 17  1  0
M  CHG  1  11  -1
M  END
>  <cnnaffinities>  (38) 
[5.45582, 5.37678]

>  <score>  (38) 
5.45582

>  <index>  (38) 
39

>  <Smiles>  (38) 
C(C(=O)N1C([C@@]2(C([C@]1(c1c([O-])n(c3c(nc(c4c(c(c(c(c34)[H])[H])[H])[H])[H])[H])c(=O)n21)[H])([H])[H])[H])([H])[H])([H])([H])[H]

>  <h>  (38) 
<NA>

>  <Training>  (38) 
True

>  <Success>  (38) 
True

>  <enamine_searched>  (38) 
False

>  <enamine_id>  (38) 
nan

$$$$

     RDKit          3D

 40 42  0  0  0  0  0  0  0  0999 V2000
   -6.4969    1.4267  -26.8582 C   0  0  0  0  0  0  0  0  0  0  0  0
   -7.5009    1.0190  -25.7824 C   0  0  0  0  0  0  0  0  0  0  0  0
   -7.3101   -0.4351  -25.3654 C   0  0  0  0  0  0  0  0  0  0  0  0
   -8.2780   -0.8314  -24.2612 C   0  0  0  0  0  0  0  0  0  0  0  0
   -8.1754    0.0874  -23.1325 N   0  0  0  0  0  0  0  0  0  0  0  0
   -8.3748   -0.3120  -21.8075 C   0  0  0  0  0  0  0  0  0  0  0  0
   -9.1749    0.2291  -21.0765 O   0  0  0  0  0  0  0  0  0  0  0  0
   -7.4428   -1.4114  -21.2716 C   0  0  0  0  0  0  0  0  0  0  0  0
   -6.5707   -0.8345  -20.1747 C   0  0  0  0  0  0  0  0  0  0  0  0
   -6.8772   -1.0403  -18.8546 C   0  0  0  0  0  0  0  0  0  0  0  0
   -6.1928   -0.5333  -17.7937 N   0  0  0  0  0  0  0  0  0  0  0  0
   -5.1563    0.2221  -18.0651 C   0  0  0  0  0  0  0  0  0  0  0  0
   -4.7217    0.5324  -19.3812 C   0  0  0  0  0  0  0  0  0  0  0  0
   -3.5993    1.3643  -19.6241 C   0  0  0  0  0  0  0  0  0  0  0  0
   -3.2110    1.6610  -20.9022 C   0  0  0  0  0  0  0  0  0  0  0  0
   -3.9317    1.1283  -21.9954 C   0  0  0  0  0  0  0  0  0  0  0  0
   -5.0190    0.3160  -21.7859 C   0  0  0  0  0  0  0  0  0  0  0  0
   -5.4493   -0.0030  -20.4716 C   0  0  0  0  0  0  0  0  0  0  0  0
   -5.5536   -0.0871  -22.6386 H   0  0  0  0  0  0  0  0  0  0  0  0
   -3.6170    1.3679  -23.0069 H   0  0  0  0  0  0  0  0  0  0  0  0
   -2.3593    2.3113  -21.0841 H   0  0  0  0  0  0  0  0  0  0  0  0
   -3.0659    1.7812  -18.7734 H   0  0  0  0  0  0  0  0  0  0  0  0
   -4.6025    0.6273  -17.2162 H   0  0  0  0  0  0  0  0  0  0  0  0
   -7.7289   -1.6604  -18.5810 H   0  0  0  0  0  0  0  0  0  0  0  0
   -8.0697   -2.2029  -20.8445 H   0  0  0  0  0  0  0  0  0  0  0  0
   -6.8333   -1.8485  -22.0726 H   0  0  0  0  0  0  0  0  0  0  0  0
   -8.3907    1.4916  -23.4642 C   0  0  0  0  0  0  0  0  0  0  0  0
   -7.4153    1.9212  -24.5561 C   0  0  0  0  0  0  0  0  0  0  0  0
   -7.6019    2.9618  -24.8414 H   0  0  0  0  0  0  0  0  0  0  0  0
   -6.3938    1.8970  -24.1547 H   0  0  0  0  0  0  0  0  0  0  0  0
   -9.4240    1.6925  -23.7873 H   0  0  0  0  0  0  0  0  0  0  0  0
   -8.2314    2.0723  -22.5556 H   0  0  0  0  0  0  0  0  0  0  0  0
   -8.0795   -1.8417  -23.9072 H   0  0  0  0  0  0  0  0  0  0  0  0
   -9.3010   -0.8430  -24.6779 H   0  0  0  0  0  0  0  0  0  0  0  0
   -7.4337   -1.0952  -26.2312 H   0  0  0  0  0  0  0  0  0  0  0  0
   -6.2849   -0.5783  -25.0066 H   0  0  0  0  0  0  0  0  0  0  0  0
   -8.5117    1.1206  -26.2010 H   0  0  0  0  0  0  0  0  0  0  0  0
   -5.4704    1.3393  -26.4823 H   0  0  0  0  0  0  0  0  0  0  0  0
   -6.5760    0.7870  -27.7449 H   0  0  0  0  0  0  0  0  0  0  0  0
   -6.6430    2.4657  -27.1750 H   0  0  0  0  0  0  0  0  0  0  0  0
  1  2  1  0
  2  3  1  0
  3  4  1  0
  4  5  1  0
  5  6  1  0
  6  7  2  0
  6  8  1  0
  8  9  1  0
  9 10  2  0
 10 11  1  0
 11 12  2  0
 12 13  1  0
 13 14  2  0
 14 15  1  0
 15 16  2  0
 16 17  1  0
 17 18  2  0
 17 19  1  0
 16 20  1  0
 15 21  1  0
 14 22  1  0
 12 23  1  0
 10 24  1  0
  8 25  1  0
  8 26  1  0
  5 27  1  0
 27 28  1  0
 28 29  1  0
 28 30  1  0
 27 31  1  0
 27 32  1  0
  4 33  1  0
  4 34  1  0
  3 35  1  0
  3 36  1  0
  2 37  1  0
  1 38  1  0
  1 39  1  0
  1 40  1  0
 28  2  1  0
 18  9  1  0
 18 13  1  0
M  END
>  <cnnaffinities>  (39) 
[4.48864, 4.48862, 4.33279, 4.33226, 4.22512, 4.93229, 5.02337, 4.43554, 4.47756, 4.52655]

>  <score>  (39) 
4.48864

>  <index>  (39) 
40

>  <Smiles>  (39) 
C(C1(C(C(N(C(=O)C(c2c(nc(c3c(c(c(c(c23)[H])[H])[H])[H])[H])[H])([H])[H])C(C1([H])[H])([H])[H])([H])[H])([H])[H])[H])([H])([H])[H]

>  <h>  (39) 
<NA>

>  <Training>  (39) 
True

>  <Success>  (39) 
True

>  <enamine_searched>  (39) 
False

>  <enamine_id>  (39) 
nan

$$$$

     RDKit          3D

 67 71  0  0  0  0  0  0  0  0999 V2000
   -7.4714    3.2870  -21.8874 C   0  0  0  0  0  0  0  0  0  0  0  0
   -8.5385    2.7818  -22.7416 N   0  0  0  0  0  0  0  0  0  0  0  0
   -8.1630    2.0414  -23.8225 C   0  0  0  0  0  0  0  0  0  0  0  0
   -6.9865    1.8309  -24.0796 O   0  0  0  0  0  0  0  0  0  0  0  0
   -9.2516    1.4468  -24.7091 C   0  0  0  0  0  0  0  0  0  0  0  0
   -9.8007    0.2614  -24.0875 N   0  0  0  0  0  0  0  0  0  0  0  0
   -8.9796   -0.9419  -24.0191 C   0  0  0  0  0  0  0  0  0  0  0  0
   -9.2082   -1.7146  -22.6946 C   0  0  2  0  0  0  0  0  0  0  0  0
   -8.6333   -0.8962  -21.5148 C   0  0  0  0  0  0  0  0  0  0  0  0
   -9.1395    0.0677  -20.9718 O   0  0  0  0  0  0  0  0  0  0  0  0
   -7.4064   -1.4235  -21.1827 N   0  0  0  0  0  0  0  0  0  0  0  0
   -6.6124   -0.8348  -20.1691 C   0  0  0  0  0  0  0  0  0  0  0  0
   -6.9379   -1.0410  -18.8510 C   0  0  0  0  0  0  0  0  0  0  0  0
   -6.2381   -0.5485  -17.8021 N   0  0  0  0  0  0  0  0  0  0  0  0
   -5.1902    0.1915  -18.0795 C   0  0  0  0  0  0  0  0  0  0  0  0
   -4.7537    0.5031  -19.3986 C   0  0  0  0  0  0  0  0  0  0  0  0
   -3.6299    1.3386  -19.6345 C   0  0  0  0  0  0  0  0  0  0  0  0
   -3.2469    1.6413  -20.9126 C   0  0  0  0  0  0  0  0  0  0  0  0
   -3.9713    1.1307  -22.0107 C   0  0  0  0  0  0  0  0  0  0  0  0
   -5.0709    0.3274  -21.8110 C   0  0  0  0  0  0  0  0  0  0  0  0
   -5.4833   -0.0183  -20.4923 C   0  0  0  0  0  0  0  0  0  0  0  0
   -5.6466   -0.0038  -22.6696 H   0  0  0  0  0  0  0  0  0  0  0  0
   -3.6594    1.3819  -23.0205 H   0  0  0  0  0  0  0  0  0  0  0  0
   -2.3922    2.2888  -21.0855 H   0  0  0  0  0  0  0  0  0  0  0  0
   -3.1038    1.7444  -18.7753 H   0  0  0  0  0  0  0  0  0  0  0  0
   -4.6295    0.5952  -17.2367 H   0  0  0  0  0  0  0  0  0  0  0  0
   -7.8048   -1.6506  -18.6084 H   0  0  0  0  0  0  0  0  0  0  0  0
   -7.0121   -2.5621  -21.9895 C   0  0  0  0  0  0  0  0  0  0  0  0
   -8.3428   -3.0128  -22.6228 C   0  0  2  0  0  0  0  0  0  0  0  0
   -8.1233   -3.8054  -23.9230 C   0  0  0  0  0  0  0  0  0  0  0  0
   -9.6588   -4.5482  -24.5099 S   0  0  0  0  0  0  0  0  0  0  0  0
  -10.1716   -5.3037  -23.3815 O   0  0  0  0  0  0  0  0  0  0  0  0
  -10.5089   -3.5411  -25.1343 O   0  0  0  0  0  0  0  0  0  0  0  0
   -9.1735   -5.6575  -25.7024 N   0  0  0  0  0  0  0  0  0  0  0  0
   -8.6232   -5.0262  -26.9034 C   0  0  0  0  0  0  0  0  0  0  0  0
   -7.6560   -4.5645  -26.6801 H   0  0  0  0  0  0  0  0  0  0  0  0
   -8.4353   -5.8212  -27.6310 H   0  0  0  0  0  0  0  0  0  0  0  0
   -9.3089   -4.2890  -27.3455 H   0  0  0  0  0  0  0  0  0  0  0  0
  -10.2846   -6.5716  -26.0366 C   0  0  0  0  0  0  0  0  0  0  0  0
   -9.9160   -7.2892  -26.7769 H   0  0  0  0  0  0  0  0  0  0  0  0
  -10.5888   -7.1209  -25.1417 H   0  0  0  0  0  0  0  0  0  0  0  0
  -11.1500   -6.0387  -26.4618 H   0  0  0  0  0  0  0  0  0  0  0  0
   -7.4305   -4.6350  -23.7524 H   0  0  0  0  0  0  0  0  0  0  0  0
   -7.7117   -3.1639  -24.7080 H   0  0  0  0  0  0  0  0  0  0  0  0
   -8.8218   -3.6874  -21.9100 H   0  0  0  0  0  0  0  0  0  0  0  0
   -6.2734   -2.2833  -22.7588 H   0  0  0  0  0  0  0  0  0  0  0  0
   -6.5716   -3.3439  -21.3631 H   0  0  0  0  0  0  0  0  0  0  0  0
  -10.7072   -1.8988  -22.5469 C   0  0  0  0  0  0  0  0  0  0  0  0
  -11.2361   -2.9006  -21.7313 C   0  0  0  0  0  0  0  0  0  0  0  0
  -12.5958   -2.9415  -21.4952 C   0  0  0  0  0  0  0  0  0  0  0  0
  -13.0733   -3.8163  -20.5991 F   0  0  0  0  0  0  0  0  0  0  0  0
  -13.5026   -2.1104  -22.1381 C   0  0  0  0  0  0  0  0  0  0  0  0
  -12.9910   -1.1559  -22.9874 C   0  0  0  0  0  0  0  0  0  0  0  0
  -11.6157   -1.0084  -23.1372 C   0  0  0  0  0  0  0  0  0  0  0  0
  -11.1478    0.2016  -23.8794 C   0  0  0  0  0  0  0  0  0  0  0  0
  -11.9241    1.0727  -24.2482 O   0  0  0  0  0  0  0  0  0  0  0  0
  -13.6248   -0.4623  -23.5260 H   0  0  0  0  0  0  0  0  0  0  0  0
  -14.5632   -2.1998  -21.9394 H   0  0  0  0  0  0  0  0  0  0  0  0
  -10.6218   -3.6700  -21.2802 H   0  0  0  0  0  0  0  0  0  0  0  0
   -7.9286   -0.6509  -24.1150 H   0  0  0  0  0  0  0  0  0  0  0  0
   -9.2501   -1.6069  -24.8488 H   0  0  0  0  0  0  0  0  0  0  0  0
  -10.0914    2.1190  -24.8935 H   0  0  0  0  0  0  0  0  0  0  0  0
   -8.8017    1.1827  -25.6721 H   0  0  0  0  0  0  0  0  0  0  0  0
   -9.4416    2.6185  -22.3101 H   0  0  0  0  0  0  0  0  0  0  0  0
   -6.7998    3.9148  -22.4836 H   0  0  0  0  0  0  0  0  0  0  0  0
   -6.8919    2.4407  -21.4797 H   0  0  0  0  0  0  0  0  0  0  0  0
   -7.8872    3.9199  -21.0946 H   0  0  0  0  0  0  0  0  0  0  0  0
  1  2  1  0
  2  3  1  0
  3  4  2  0
  3  5  1  0
  5  6  1  0
  6  7  1  0
  8  7  1  6
  8  9  1  0
  9 10  2  0
  9 11  1  0
 11 12  1  0
 12 13  2  0
 13 14  1  0
 14 15  2  0
 15 16  1  0
 16 17  2  0
 17 18  1  0
 18 19  2  0
 19 20  1  0
 20 21  2  0
 20 22  1  0
 19 23  1  0
 18 24  1  0
 17 25  1  0
 15 26  1  0
 13 27  1  0
 11 28  1  0
 28 29  1  0
 29 30  1  0
 30 31  1  0
 31 32  2  0
 31 33  2  0
 31 34  1  0
 34 35  1  0
 35 36  1  0
 35 37  1  0
 35 38  1  0
 34 39  1  0
 39 40  1  0
 39 41  1  0
 39 42  1  0
 30 43  1  0
 30 44  1  0
 29 45  1  1
 28 46  1  0
 28 47  1  0
  8 48  1  0
 48 49  2  0
 49 50  1  0
 50 51  1  0
 50 52  2  0
 52 53  1  0
 53 54  2  0
 54 55  1  0
 55 56  2  0
 53 57  1  0
 52 58  1  0
 49 59  1  0
  7 60  1  0
  7 61  1  0
  5 62  1  0
  5 63  1  0
  2 64  1  0
  1 65  1  0
  1 66  1  0
  1 67  1  0
 55  6  1  0
 29  8  1  0
 54 48  1  0
 21 12  1  0
 21 16  1  0
M  END
>  <cnnaffinities>  (40) 
[6.75825, 7.0301, 6.43056, 7.03885, 6.88496]

>  <score>  (40) 
6.75825

>  <index>  (40) 
41

>  <Smiles>  (40) 
C(N(C(=O)C(N1C([C@@]2(C(=O)N(c3c(nc(c4c(c(c(c(c34)[H])[H])[H])[H])[H])[H])C([C@@]2(C(S(=O)(=O)N(C([H])([H])[H])C([H])([H])[H])([H])[H])[H])([H])[H])c2c(c(F)c(c(c2C1=O)[H])[H])[H])([H])[H])([H])[H])[H])([H])([H])[H]

>  <h>  (40) 
<NA>

>  <Training>  (40) 
True

>  <Success>  (40) 
True

>  <enamine_searched>  (40) 
False

>  <enamine_id>  (40) 
nan

$$$$

     RDKit          3D

 67 72  0  0  0  0  0  0  0  0999 V2000
   -7.3676    3.3936  -21.8145 C   0  0  0  0  0  0  0  0  0  0  0  0
   -8.2519    2.9564  -22.8773 N   0  0  0  0  0  0  0  0  0  0  0  0
   -7.6986    2.2427  -23.8918 C   0  0  0  0  0  0  0  0  0  0  0  0
   -6.4893    2.0953  -24.0011 O   0  0  0  0  0  0  0  0  0  0  0  0
   -8.6556    1.6332  -24.9096 C   0  0  0  0  0  0  0  0  0  0  0  0
   -9.3572    0.4820  -24.3873 N   0  0  0  0  0  0  0  0  0  0  0  0
   -8.6268   -0.7596  -24.2235 C   0  0  0  0  0  0  0  0  0  0  0  0
   -9.0221   -1.4909  -22.9216 C   0  0  2  0  0  0  0  0  0  0  0  0
   -8.4915   -0.7211  -21.6910 C   0  0  0  0  0  0  0  0  0  0  0  0
   -8.9434    0.2985  -21.2125 O   0  0  0  0  0  0  0  0  0  0  0  0
   -7.3919   -1.3861  -21.2006 N   0  0  0  0  0  0  0  0  0  0  0  0
   -6.5968   -0.8184  -20.1745 C   0  0  0  0  0  0  0  0  0  0  0  0
   -6.9192   -1.0444  -18.8611 C   0  0  0  0  0  0  0  0  0  0  0  0
   -6.2259   -0.5462  -17.8081 N   0  0  0  0  0  0  0  0  0  0  0  0
   -5.1837    0.2045  -18.0778 C   0  0  0  0  0  0  0  0  0  0  0  0
   -4.7391    0.5194  -19.3939 C   0  0  0  0  0  0  0  0  0  0  0  0
   -3.6125    1.3506  -19.6383 C   0  0  0  0  0  0  0  0  0  0  0  0
   -3.2248    1.6451  -20.9167 C   0  0  0  0  0  0  0  0  0  0  0  0
   -3.9470    1.1276  -22.0171 C   0  0  0  0  0  0  0  0  0  0  0  0
   -5.0419    0.3228  -21.8092 C   0  0  0  0  0  0  0  0  0  0  0  0
   -5.4650   -0.0044  -20.4894 C   0  0  0  0  0  0  0  0  0  0  0  0
   -5.6026   -0.0477  -22.6637 H   0  0  0  0  0  0  0  0  0  0  0  0
   -3.6523    1.3815  -23.0309 H   0  0  0  0  0  0  0  0  0  0  0  0
   -2.3693    2.2931  -21.0923 H   0  0  0  0  0  0  0  0  0  0  0  0
   -3.0837    1.7613  -18.7825 H   0  0  0  0  0  0  0  0  0  0  0  0
   -4.6227    0.6031  -17.2318 H   0  0  0  0  0  0  0  0  0  0  0  0
   -7.7840   -1.6604  -18.6190 H   0  0  0  0  0  0  0  0  0  0  0  0
   -7.0380   -2.5825  -21.9301 C   0  0  0  0  0  0  0  0  0  0  0  0
   -8.2879   -2.8566  -22.7827 C   0  0  2  0  0  0  0  0  0  0  0  0
   -7.9342   -3.6292  -24.0628 C   0  0  0  0  0  0  0  0  0  0  0  0
   -7.3979   -4.9259  -23.7298 N   0  0  0  0  0  0  0  0  0  0  0  0
   -6.0884   -5.3137  -23.8249 C   0  0  0  0  0  0  0  0  0  0  0  0
   -4.8378   -4.3418  -24.5519 S   0  0  0  0  0  0  0  0  0  0  0  0
   -3.7330   -5.6586  -24.2739 C   0  0  0  0  0  0  0  0  0  0  0  0
   -4.2292   -6.6825  -23.6671 N   0  0  0  0  0  0  0  0  0  0  0  0
   -5.5739   -6.5074  -23.4102 C   0  0  0  0  0  0  0  0  0  0  0  0
   -6.3558   -7.6188  -22.7714 C   0  0  0  0  0  0  0  0  0  0  0  0
   -7.0812   -8.0650  -23.4649 H   0  0  0  0  0  0  0  0  0  0  0  0
   -6.9058   -7.3255  -21.8674 H   0  0  0  0  0  0  0  0  0  0  0  0
   -5.6502   -8.4000  -22.4878 H   0  0  0  0  0  0  0  0  0  0  0  0
   -2.6887   -5.5612  -24.5433 H   0  0  0  0  0  0  0  0  0  0  0  0
   -8.0602   -5.6550  -23.5101 H   0  0  0  0  0  0  0  0  0  0  0  0
   -8.8198   -3.7559  -24.7000 H   0  0  0  0  0  0  0  0  0  0  0  0
   -7.1861   -3.0759  -24.6393 H   0  0  0  0  0  0  0  0  0  0  0  0
   -8.9493   -3.5058  -22.2082 H   0  0  0  0  0  0  0  0  0  0  0  0
   -6.1500   -2.4228  -22.5602 H   0  0  0  0  0  0  0  0  0  0  0  0
   -6.8069   -3.4062  -21.2456 H   0  0  0  0  0  0  0  0  0  0  0  0
  -10.5385   -1.5471  -22.8609 C   0  0  0  0  0  0  0  0  0  0  0  0
  -11.1803   -2.4350  -21.9907 C   0  0  0  0  0  0  0  0  0  0  0  0
  -12.5615   -2.4464  -21.9115 C   0  0  0  0  0  0  0  0  0  0  0  0
  -13.3394   -3.5352  -20.7969 Cl  0  0  0  0  0  0  0  0  0  0  0  0
  -13.3504   -1.5904  -22.6827 C   0  0  0  0  0  0  0  0  0  0  0  0
  -12.7244   -0.6721  -23.5014 C   0  0  0  0  0  0  0  0  0  0  0  0
  -11.3330   -0.6253  -23.5569 C   0  0  0  0  0  0  0  0  0  0  0  0
  -10.7204    0.5136  -24.3065 C   0  0  0  0  0  0  0  0  0  0  0  0
  -11.4003    1.4165  -24.7767 O   0  0  0  0  0  0  0  0  0  0  0  0
  -13.2790    0.0606  -24.0818 H   0  0  0  0  0  0  0  0  0  0  0  0
  -14.4300   -1.6342  -22.5947 H   0  0  0  0  0  0  0  0  0  0  0  0
  -10.6103   -3.1014  -21.3515 H   0  0  0  0  0  0  0  0  0  0  0  0
   -7.5577   -0.5225  -24.2177 H   0  0  0  0  0  0  0  0  0  0  0  0
   -8.8405   -1.4220  -25.0728 H   0  0  0  0  0  0  0  0  0  0  0  0
   -8.0386    1.3532  -25.7709 H   0  0  0  0  0  0  0  0  0  0  0  0
   -9.4306    2.3450  -25.2015 H   0  0  0  0  0  0  0  0  0  0  0  0
   -9.2250    2.8209  -22.6525 H   0  0  0  0  0  0  0  0  0  0  0  0
   -6.7656    2.5521  -21.4557 H   0  0  0  0  0  0  0  0  0  0  0  0
   -6.6800    4.1530  -22.1875 H   0  0  0  0  0  0  0  0  0  0  0  0
   -7.9457    3.8119  -20.9914 H   0  0  0  0  0  0  0  0  0  0  0  0
  1  2  1  0
  2  3  1  0
  3  4  2  0
  3  5  1  0
  5  6  1  0
  6  7  1  0
  8  7  1  6
  8  9  1  0
  9 10  2  0
  9 11  1  0
 11 12  1  0
 12 13  2  0
 13 14  1  0
 14 15  2  0
 15 16  1  0
 16 17  2  0
 17 18  1  0
 18 19  2  0
 19 20  1  0
 20 21  2  0
 20 22  1  0
 19 23  1  0
 18 24  1  0
 17 25  1  0
 15 26  1  0
 13 27  1  0
 11 28  1  0
 28 29  1  0
 29 30  1  0
 30 31  1  0
 31 32  1  0
 32 33  1  0
 33 34  1  0
 34 35  2  0
 35 36  1  0
 36 37  1  0
 37 38  1  0
 37 39  1  0
 37 40  1  0
 34 41  1  0
 31 42  1  0
 30 43  1  0
 30 44  1  0
 29 45  1  1
 28 46  1  0
 28 47  1  0
  8 48  1  0
 48 49  2  0
 49 50  1  0
 50 51  1  0
 50 52  2  0
 52 53  1  0
 53 54  2  0
 54 55  1  0
 55 56  2  0
 53 57  1  0
 52 58  1  0
 49 59  1  0
  7 60  1  0
  7 61  1  0
  5 62  1  0
  5 63  1  0
  2 64  1  0
  1 65  1  0
  1 66  1  0
  1 67  1  0
 55  6  1  0
 29  8  1  0
 36 32  2  0
 54 48  1  0
 21 12  1  0
 21 16  1  0
M  END
>  <cnnaffinities>  (41) 
[6.74868]

>  <score>  (41) 
6.74868

>  <index>  (41) 
43

>  <Smiles>  (41) 
C(N(C(=O)C(N1C([C@@]2(C(=O)N(c3c(nc(c4c(c(c(c(c34)[H])[H])[H])[H])[H])[H])C([C@@]2(C(N(c2sc(nc2C([H])([H])[H])[H])[H])([H])[H])[H])([H])[H])c2c(c(Cl)c(c(c2C1=O)[H])[H])[H])([H])[H])([H])[H])[H])([H])([H])[H]

>  <h>  (41) 
<NA>

>  <Training>  (41) 
True

>  <Success>  (41) 
True

>  <enamine_searched>  (41) 
False

>  <enamine_id>  (41) 
nan

$$$$

     RDKit          3D

 60 64  0  0  0  0  0  0  0  0999 V2000
   -7.4024    3.3797  -21.7819 C   0  0  0  0  0  0  0  0  0  0  0  0
   -8.2806    2.9256  -22.8494 N   0  0  0  0  0  0  0  0  0  0  0  0
   -7.7173    2.2358  -23.8645 C   0  0  0  0  0  0  0  0  0  0  0  0
   -6.5030    2.1200  -23.9840 O   0  0  0  0  0  0  0  0  0  0  0  0
   -8.6648    1.6127  -24.8927 C   0  0  0  0  0  0  0  0  0  0  0  0
   -9.3884    0.4582  -24.3905 N   0  0  0  0  0  0  0  0  0  0  0  0
   -8.6695   -0.7952  -24.2244 C   0  0  0  0  0  0  0  0  0  0  0  0
   -9.0593   -1.5132  -22.9071 C   0  0  2  0  0  0  0  0  0  0  0  0
   -8.5108   -0.7284  -21.6893 C   0  0  0  0  0  0  0  0  0  0  0  0
   -8.9592    0.2992  -21.2160 O   0  0  0  0  0  0  0  0  0  0  0  0
   -7.4045   -1.3836  -21.2016 N   0  0  0  0  0  0  0  0  0  0  0  0
   -6.6031   -0.8117  -20.1739 C   0  0  0  0  0  0  0  0  0  0  0  0
   -6.9117   -1.0407  -18.8563 C   0  0  0  0  0  0  0  0  0  0  0  0
   -6.2114   -0.5458  -17.8075 N   0  0  0  0  0  0  0  0  0  0  0  0
   -5.1712    0.2070  -18.0770 C   0  0  0  0  0  0  0  0  0  0  0  0
   -4.7311    0.5259  -19.3941 C   0  0  0  0  0  0  0  0  0  0  0  0
   -3.6045    1.3588  -19.6399 C   0  0  0  0  0  0  0  0  0  0  0  0
   -3.2196    1.6503  -20.9203 C   0  0  0  0  0  0  0  0  0  0  0  0
   -3.9413    1.1249  -22.0132 C   0  0  0  0  0  0  0  0  0  0  0  0
   -5.0353    0.3187  -21.8023 C   0  0  0  0  0  0  0  0  0  0  0  0
   -5.4652   -0.0005  -20.4849 C   0  0  0  0  0  0  0  0  0  0  0  0
   -5.5943   -0.0632  -22.6517 H   0  0  0  0  0  0  0  0  0  0  0  0
   -3.6500    1.3744  -23.0295 H   0  0  0  0  0  0  0  0  0  0  0  0
   -2.3676    2.3047  -21.0974 H   0  0  0  0  0  0  0  0  0  0  0  0
   -3.0764    1.7738  -18.7850 H   0  0  0  0  0  0  0  0  0  0  0  0
   -4.6191    0.6110  -17.2278 H   0  0  0  0  0  0  0  0  0  0  0  0
   -7.7664   -1.6651  -18.6030 H   0  0  0  0  0  0  0  0  0  0  0  0
   -7.0698   -2.5982  -21.9187 C   0  0  0  0  0  0  0  0  0  0  0  0
   -8.3290   -2.8863  -22.7587 C   0  0  2  0  0  0  0  0  0  0  0  0
   -7.9800   -3.6533  -24.0323 C   0  0  0  0  0  0  0  0  0  0  0  0
   -9.1479   -3.9350  -24.7616 O   0  0  0  0  0  0  0  0  0  0  0  0
   -8.8660   -4.5829  -25.9786 C   0  0  0  0  0  0  0  0  0  0  0  0
   -8.2690   -3.9464  -26.6517 H   0  0  0  0  0  0  0  0  0  0  0  0
   -8.3149   -5.5223  -25.8175 H   0  0  0  0  0  0  0  0  0  0  0  0
   -9.8213   -4.8082  -26.4583 H   0  0  0  0  0  0  0  0  0  0  0  0
   -7.2768   -3.0650  -24.6461 H   0  0  0  0  0  0  0  0  0  0  0  0
   -7.4675   -4.5965  -23.7764 H   0  0  0  0  0  0  0  0  0  0  0  0
   -9.0003   -3.5239  -22.1831 H   0  0  0  0  0  0  0  0  0  0  0  0
   -6.1902   -2.4439  -22.5655 H   0  0  0  0  0  0  0  0  0  0  0  0
   -6.8296   -3.4091  -21.2205 H   0  0  0  0  0  0  0  0  0  0  0  0
  -10.5776   -1.5591  -22.8372 C   0  0  0  0  0  0  0  0  0  0  0  0
  -11.2139   -2.4367  -21.9498 C   0  0  0  0  0  0  0  0  0  0  0  0
  -12.5937   -2.4507  -21.8571 C   0  0  0  0  0  0  0  0  0  0  0  0
  -13.3751   -3.5334  -20.7425 Cl  0  0  0  0  0  0  0  0  0  0  0  0
  -13.3815   -1.5962  -22.6279 C   0  0  0  0  0  0  0  0  0  0  0  0
  -12.7624   -0.6816  -23.4572 C   0  0  0  0  0  0  0  0  0  0  0  0
  -11.3717   -0.6358  -23.5348 C   0  0  0  0  0  0  0  0  0  0  0  0
  -10.7546    0.5001  -24.2978 C   0  0  0  0  0  0  0  0  0  0  0  0
  -11.4328    1.4041  -24.7645 O   0  0  0  0  0  0  0  0  0  0  0  0
  -13.3242    0.0509  -24.0303 H   0  0  0  0  0  0  0  0  0  0  0  0
  -14.4598   -1.6331  -22.5342 H   0  0  0  0  0  0  0  0  0  0  0  0
  -10.6411   -3.0910  -21.3035 H   0  0  0  0  0  0  0  0  0  0  0  0
   -8.8861   -1.4735  -25.0646 H   0  0  0  0  0  0  0  0  0  0  0  0
   -7.6019   -0.5587  -24.2114 H   0  0  0  0  0  0  0  0  0  0  0  0
   -9.4340    2.3214  -25.2097 H   0  0  0  0  0  0  0  0  0  0  0  0
   -8.0325    1.3383  -25.7448 H   0  0  0  0  0  0  0  0  0  0  0  0
   -9.2708    2.8387  -22.6799 H   0  0  0  0  0  0  0  0  0  0  0  0
   -6.7167    4.1491  -22.1516 H   0  0  0  0  0  0  0  0  0  0  0  0
   -6.8012    2.5349  -21.4159 H   0  0  0  0  0  0  0  0  0  0  0  0
   -8.0072    3.8024  -20.9820 H   0  0  0  0  0  0  0  0  0  0  0  0
  1  2  1  0
  2  3  1  0
  3  4  2  0
  3  5  1  0
  5  6  1  0
  6  7  1  0
  8  7  1  6
  8  9  1  0
  9 10  2  0
  9 11  1  0
 11 12  1  0
 12 13  2  0
 13 14  1  0
 14 15  2  0
 15 16  1  0
 16 17  2  0
 17 18  1  0
 18 19  2  0
 19 20  1  0
 20 21  2  0
 20 22  1  0
 19 23  1  0
 18 24  1  0
 17 25  1  0
 15 26  1  0
 13 27  1  0
 11 28  1  0
 28 29  1  0
 29 30  1  0
 30 31  1  0
 31 32  1  0
 32 33  1  0
 32 34  1  0
 32 35  1  0
 30 36  1  0
 30 37  1  0
 29 38  1  1
 28 39  1  0
 28 40  1  0
  8 41  1  0
 41 42  2  0
 42 43  1  0
 43 44  1  0
 43 45  2  0
 45 46  1  0
 46 47  2  0
 47 48  1  0
 48 49  2  0
 46 50  1  0
 45 51  1  0
 42 52  1  0
  7 53  1  0
  7 54  1  0
  5 55  1  0
  5 56  1  0
  2 57  1  0
  1 58  1  0
  1 59  1  0
  1 60  1  0
 48  6  1  0
 29  8  1  0
 47 41  1  0
 21 12  1  0
 21 16  1  0
M  END
>  <cnnaffinities>  (42) 
[6.45304, 6.25372, 6.48768]

>  <score>  (42) 
6.45304

>  <index>  (42) 
44

>  <Smiles>  (42) 
C(N(C(=O)C(N1C([C@@]2(C(=O)N(c3c(nc(c4c(c(c(c(c34)[H])[H])[H])[H])[H])[H])C([C@@]2(C(OC([H])([H])[H])([H])[H])[H])([H])[H])c2c(c(Cl)c(c(c2C1=O)[H])[H])[H])([H])[H])([H])[H])[H])([H])([H])[H]

>  <h>  (42) 
<NA>

>  <Training>  (42) 
True

>  <Success>  (42) 
True

>  <enamine_searched>  (42) 
False

>  <enamine_id>  (42) 
nan

$$$$

     RDKit          3D

 66 71  0  0  0  0  0  0  0  0999 V2000
   -7.4332    3.3520  -21.7627 C   0  0  0  0  0  0  0  0  0  0  0  0
   -8.3217    2.9029  -22.8182 N   0  0  0  0  0  0  0  0  0  0  0  0
   -7.7514    2.2208  -23.8370 C   0  0  0  0  0  0  0  0  0  0  0  0
   -6.5366    2.1228  -23.9536 O   0  0  0  0  0  0  0  0  0  0  0  0
   -8.7037    1.5952  -24.8625 C   0  0  0  0  0  0  0  0  0  0  0  0
   -9.4209    0.4345  -24.3683 N   0  0  0  0  0  0  0  0  0  0  0  0
   -8.6963   -0.8119  -24.2103 C   0  0  0  0  0  0  0  0  0  0  0  0
   -9.0740   -1.5328  -22.8904 C   0  0  2  0  0  0  0  0  0  0  0  0
   -8.5272   -0.7414  -21.6700 C   0  0  0  0  0  0  0  0  0  0  0  0
   -8.9835    0.2724  -21.1889 O   0  0  0  0  0  0  0  0  0  0  0  0
   -7.4022   -1.3839  -21.2017 N   0  0  0  0  0  0  0  0  0  0  0  0
   -6.6058   -0.8101  -20.1749 C   0  0  0  0  0  0  0  0  0  0  0  0
   -6.9107   -1.0408  -18.8579 C   0  0  0  0  0  0  0  0  0  0  0  0
   -6.2073   -0.5468  -17.8088 N   0  0  0  0  0  0  0  0  0  0  0  0
   -5.1686    0.2073  -18.0776 C   0  0  0  0  0  0  0  0  0  0  0  0
   -4.7288    0.5261  -19.3935 C   0  0  0  0  0  0  0  0  0  0  0  0
   -3.6019    1.3595  -19.6409 C   0  0  0  0  0  0  0  0  0  0  0  0
   -3.2174    1.6537  -20.9197 C   0  0  0  0  0  0  0  0  0  0  0  0
   -3.9410    1.1265  -22.0138 C   0  0  0  0  0  0  0  0  0  0  0  0
   -5.0337    0.3192  -21.8002 C   0  0  0  0  0  0  0  0  0  0  0  0
   -5.4643   -0.0002  -20.4840 C   0  0  0  0  0  0  0  0  0  0  0  0
   -5.5950   -0.0634  -22.6480 H   0  0  0  0  0  0  0  0  0  0  0  0
   -3.6516    1.3749  -23.0285 H   0  0  0  0  0  0  0  0  0  0  0  0
   -2.3682    2.3073  -21.0982 H   0  0  0  0  0  0  0  0  0  0  0  0
   -3.0752    1.7757  -18.7859 H   0  0  0  0  0  0  0  0  0  0  0  0
   -4.6207    0.6120  -17.2265 H   0  0  0  0  0  0  0  0  0  0  0  0
   -7.7599   -1.6681  -18.5993 H   0  0  0  0  0  0  0  0  0  0  0  0
   -7.0545   -2.5879  -21.9317 C   0  0  0  0  0  0  0  0  0  0  0  0
   -8.3246   -2.8956  -22.7526 C   0  0  2  0  0  0  0  0  0  0  0  0
   -8.0155   -3.6748  -24.0497 C   0  0  0  0  0  0  0  0  0  0  0  0
   -7.4721   -5.0635  -23.7803 C   0  0  0  0  0  0  0  0  0  0  0  0
   -8.3449   -6.1221  -23.5142 C   0  0  0  0  0  0  0  0  0  0  0  0
   -7.8611   -7.3989  -23.2366 C   0  0  0  0  0  0  0  0  0  0  0  0
   -6.4907   -7.6356  -23.1992 C   0  0  0  0  0  0  0  0  0  0  0  0
   -5.6084   -6.5926  -23.4675 C   0  0  0  0  0  0  0  0  0  0  0  0
   -6.0973   -5.3201  -23.7568 C   0  0  0  0  0  0  0  0  0  0  0  0
   -5.3979   -4.5103  -23.9644 H   0  0  0  0  0  0  0  0  0  0  0  0
   -4.5353   -6.7734  -23.4561 H   0  0  0  0  0  0  0  0  0  0  0  0
   -6.1164   -8.6301  -22.9670 H   0  0  0  0  0  0  0  0  0  0  0  0
   -8.5531   -8.2191  -23.0555 H   0  0  0  0  0  0  0  0  0  0  0  0
   -9.4184   -5.9317  -23.5267 H   0  0  0  0  0  0  0  0  0  0  0  0
   -8.9324   -3.7526  -24.6506 H   0  0  0  0  0  0  0  0  0  0  0  0
   -7.2880   -3.1140  -24.6525 H   0  0  0  0  0  0  0  0  0  0  0  0
   -8.9698   -3.5376  -22.1471 H   0  0  0  0  0  0  0  0  0  0  0  0
   -6.7927   -3.4030  -21.2458 H   0  0  0  0  0  0  0  0  0  0  0  0
   -6.1763   -2.4304  -22.5812 H   0  0  0  0  0  0  0  0  0  0  0  0
  -10.5893   -1.5948  -22.8136 C   0  0  0  0  0  0  0  0  0  0  0  0
  -11.2172   -2.4886  -21.9374 C   0  0  0  0  0  0  0  0  0  0  0  0
  -12.5960   -2.5097  -21.8443 C   0  0  0  0  0  0  0  0  0  0  0  0
  -13.3778   -3.5960  -20.7369 Cl  0  0  0  0  0  0  0  0  0  0  0  0
  -13.3936   -1.6581  -22.6056 C   0  0  0  0  0  0  0  0  0  0  0  0
  -12.7793   -0.7342  -23.4248 C   0  0  0  0  0  0  0  0  0  0  0  0
  -11.3895   -0.6724  -23.5030 C   0  0  0  0  0  0  0  0  0  0  0  0
  -10.7839    0.4695  -24.2648 C   0  0  0  0  0  0  0  0  0  0  0  0
  -11.4655    1.3746  -24.7237 O   0  0  0  0  0  0  0  0  0  0  0  0
  -13.3475   -0.0036  -23.9892 H   0  0  0  0  0  0  0  0  0  0  0  0
  -14.4720   -1.7069  -22.5109 H   0  0  0  0  0  0  0  0  0  0  0  0
  -10.6407   -3.1520  -21.3021 H   0  0  0  0  0  0  0  0  0  0  0  0
   -8.8986   -1.4862  -25.0594 H   0  0  0  0  0  0  0  0  0  0  0  0
   -7.6318   -0.5602  -24.2014 H   0  0  0  0  0  0  0  0  0  0  0  0
   -9.4781    2.2969  -25.1875 H   0  0  0  0  0  0  0  0  0  0  0  0
   -8.0646    1.3320  -25.7132 H   0  0  0  0  0  0  0  0  0  0  0  0
   -9.3178    2.8112  -22.6542 H   0  0  0  0  0  0  0  0  0  0  0  0
   -6.7571    4.1356  -22.1279 H   0  0  0  0  0  0  0  0  0  0  0  0
   -8.0296    3.7724  -20.9553 H   0  0  0  0  0  0  0  0  0  0  0  0
   -6.8195    2.5017  -21.4162 H   0  0  0  0  0  0  0  0  0  0  0  0
  1  2  1  0
  2  3  1  0
  3  4  2  0
  3  5  1  0
  5  6  1  0
  6  7  1  0
  8  7  1  6
  8  9  1  0
  9 10  2  0
  9 11  1  0
 11 12  1  0
 12 13  2  0
 13 14  1  0
 14 15  2  0
 15 16  1  0
 16 17  2  0
 17 18  1  0
 18 19  2  0
 19 20  1  0
 20 21  2  0
 20 22  1  0
 19 23  1  0
 18 24  1  0
 17 25  1  0
 15 26  1  0
 13 27  1  0
 11 28  1  0
 28 29  1  0
 29 30  1  0
 30 31  1  0
 31 32  2  0
 32 33  1  0
 33 34  2  0
 34 35  1  0
 35 36  2  0
 36 37  1  0
 35 38  1  0
 34 39  1  0
 33 40  1  0
 32 41  1  0
 30 42  1  0
 30 43  1  0
 29 44  1  1
 28 45  1  0
 28 46  1  0
  8 47  1  0
 47 48  2  0
 48 49  1  0
 49 50  1  0
 49 51  2  0
 51 52  1  0
 52 53  2  0
 53 54  1  0
 54 55  2  0
 52 56  1  0
 51 57  1  0
 48 58  1  0
  7 59  1  0
  7 60  1  0
  5 61  1  0
  5 62  1  0
  2 63  1  0
  1 64  1  0
  1 65  1  0
  1 66  1  0
 54  6  1  0
 29  8  1  0
 36 31  1  0
 53 47  1  0
 21 12  1  0
 21 16  1  0
M  END
>  <cnnaffinities>  (43) 
[6.69693, 6.72353]

>  <score>  (43) 
6.69693

>  <index>  (43) 
45

>  <Smiles>  (43) 
C(N(C(=O)C(N1C([C@@]2(C(=O)N(c3c(nc(c4c(c(c(c(c34)[H])[H])[H])[H])[H])[H])C([C@@]2(C(c2c(c(c(c(c2[H])[H])[H])[H])[H])([H])[H])[H])([H])[H])c2c(c(Cl)c(c(c2C1=O)[H])[H])[H])([H])[H])([H])[H])[H])([H])([H])[H]

>  <h>  (43) 
<NA>

>  <Training>  (43) 
True

>  <Success>  (43) 
True

>  <enamine_searched>  (43) 
False

>  <enamine_id>  (43) 
nan

$$$$

     RDKit          3D

 50 54  0  0  0  0  0  0  0  0999 V2000
   -7.5001   -3.7190  -23.6716 C   0  0  0  0  0  0  0  0  0  0  0  0
   -8.4042   -3.0372  -22.6420 C   0  0  1  0  0  0  0  0  0  0  0  0
   -7.6925   -2.8578  -21.2809 C   0  0  0  0  0  0  0  0  0  0  0  0
   -7.3831   -1.4478  -21.2220 N   0  0  0  0  0  0  0  0  0  0  0  0
   -6.5932   -0.8783  -20.1889 C   0  0  0  0  0  0  0  0  0  0  0  0
   -6.9087   -1.1125  -18.8727 C   0  0  0  0  0  0  0  0  0  0  0  0
   -6.2531   -0.5864  -17.8080 N   0  0  0  0  0  0  0  0  0  0  0  0
   -5.2255    0.1878  -18.0628 C   0  0  0  0  0  0  0  0  0  0  0  0
   -4.7577    0.4840  -19.3745 C   0  0  0  0  0  0  0  0  0  0  0  0
   -3.6287    1.3208  -19.5829 C   0  0  0  0  0  0  0  0  0  0  0  0
   -3.1835    1.5818  -20.8494 C   0  0  0  0  0  0  0  0  0  0  0  0
   -3.8445    1.0154  -21.9616 C   0  0  0  0  0  0  0  0  0  0  0  0
   -4.9438    0.2088  -21.7874 C   0  0  0  0  0  0  0  0  0  0  0  0
   -5.4432   -0.0677  -20.4814 C   0  0  0  0  0  0  0  0  0  0  0  0
   -5.4423   -0.2175  -22.6532 H   0  0  0  0  0  0  0  0  0  0  0  0
   -3.4843    1.2325  -22.9630 H   0  0  0  0  0  0  0  0  0  0  0  0
   -2.3256    2.2307  -21.0056 H   0  0  0  0  0  0  0  0  0  0  0  0
   -3.1443    1.7594  -18.7142 H   0  0  0  0  0  0  0  0  0  0  0  0
   -4.7001    0.6181  -17.2098 H   0  0  0  0  0  0  0  0  0  0  0  0
   -7.7644   -1.7393  -18.6260 H   0  0  0  0  0  0  0  0  0  0  0  0
   -8.2521   -0.6914  -21.9819 C   0  0  0  0  0  0  0  0  0  0  0  0
   -8.3777    0.5061  -21.8761 O   0  0  0  0  0  0  0  0  0  0  0  0
   -8.9457   -1.6302  -23.0477 C   0  0  1  0  0  0  0  0  0  0  0  0
   -8.4119   -1.0341  -24.4212 C   0  0  0  0  0  0  0  0  0  0  0  0
   -9.1480    0.1829  -24.7868 N   0  0  0  0  0  0  0  0  0  0  0  0
   -8.4906    1.1478  -25.6376 C   0  0  0  0  0  0  0  0  0  0  0  0
   -7.9374    2.2992  -24.8968 C   0  0  0  0  0  0  0  0  0  0  0  0
   -7.4988    3.2347  -24.3764 N   0  0  0  0  0  0  0  0  0  0  0  0
   -7.6748    0.6579  -26.1815 H   0  0  0  0  0  0  0  0  0  0  0  0
   -9.2079    1.5329  -26.3686 H   0  0  0  0  0  0  0  0  0  0  0  0
  -10.4556    0.4871  -24.4103 C   0  0  0  0  0  0  0  0  0  0  0  0
  -10.9897    1.5109  -24.8163 O   0  0  0  0  0  0  0  0  0  0  0  0
  -11.1547   -0.5128  -23.5562 C   0  0  0  0  0  0  0  0  0  0  0  0
  -12.5597   -0.6251  -23.4667 C   0  0  0  0  0  0  0  0  0  0  0  0
  -12.7645   -1.9702  -22.9621 C   0  0  0  0  0  0  0  0  0  0  0  0
  -12.6786   -2.0209  -22.7985 C   0  0  0  0  0  0  0  0  0  0  0  0
  -12.8494   -2.6072  -20.8625 F   0  0  0  0  0  0  0  0  0  0  0  0
  -11.3713   -2.6644  -22.7582 C   0  0  0  0  0  0  0  0  0  0  0  0
  -10.5177   -1.6416  -23.0837 C   0  0  0  0  0  0  0  0  0  0  0  0
  -11.5601   -2.8235  -21.7288 H   0  0  0  0  0  0  0  0  0  0  0  0
  -13.7315   -2.3973  -22.5212 H   0  0  0  0  0  0  0  0  0  0  0  0
  -13.1573   -0.8623  -24.3162 H   0  0  0  0  0  0  0  0  0  0  0  0
   -7.3599   -0.7618  -24.3117 H   0  0  0  0  0  0  0  0  0  0  0  0
   -8.4579   -1.7717  -25.2377 H   0  0  0  0  0  0  0  0  0  0  0  0
   -8.3544   -3.1535  -20.4540 H   0  0  0  0  0  0  0  0  0  0  0  0
   -6.7738   -3.4466  -21.2014 H   0  0  0  0  0  0  0  0  0  0  0  0
   -9.2820   -3.6755  -22.5021 H   0  0  0  0  0  0  0  0  0  0  0  0
   -8.0306   -3.8797  -24.6156 H   0  0  0  0  0  0  0  0  0  0  0  0
   -7.1773   -4.6996  -23.3064 H   0  0  0  0  0  0  0  0  0  0  0  0
   -6.6033   -3.1238  -23.8755 H   0  0  0  0  0  0  0  0  0  0  0  0
  1  2  1  0
  2  3  1  0
  3  4  1  0
  4  5  1  0
  5  6  2  0
  6  7  1  0
  7  8  2  0
  8  9  1  0
  9 10  2  0
 10 11  1  0
 11 12  2  0
 12 13  1  0
 13 14  2  0
 13 15  1  0
 12 16  1  0
 11 17  1  0
 10 18  1  0
  8 19  1  0
  6 20  1  0
  4 21  1  0
 21 22  2  0
 21 23  1  0
 23 24  1  6
 24 25  1  0
 25 26  1  0
 26 27  1  0
 27 28  3  0
 26 29  1  0
 26 30  1  0
 25 31  1  0
 31 32  2  0
 31 33  1  0
 33 34  2  0
 34 35  1  0
 35 36  2  0
 36 37  1  0
 36 38  1  0
 38 39  2  0
 38 40  1  0
 35 41  1  0
 34 42  1  0
 24 43  1  0
 24 44  1  0
  3 45  1  0
  3 46  1  0
  2 47  1  1
  1 48  1  0
  1 49  1  0
  1 50  1  0
 23  2  1  0
 39 33  1  0
 14  5  1  0
 39 23  1  0
 14  9  1  0
M  END
>  <cnnaffinities>  (44) 
[6.14979]

>  <score>  (44) 
6.14979

>  <index>  (44) 
46

>  <Smiles>  (44) 
C([C@]1(C(N(c2c(nc(c3c(c(c(c(c23)[H])[H])[H])[H])[H])[H])C(=O)[C@]21C(N(C(C#N)([H])[H])C(=O)c1c(c(c(F)c(c21)[H])[H])[H])([H])[H])([H])[H])[H])([H])([H])[H]

>  <h>  (44) 
<NA>

>  <Training>  (44) 
True

>  <Success>  (44) 
True

>  <enamine_searched>  (44) 
False

>  <enamine_id>  (44) 
nan

$$$$

     RDKit          3D

 58 63  0  0  0  0  0  0  0  0999 V2000
   -9.0939    0.3017  -21.0901 O   0  0  0  0  0  0  0  0  0  0  0  0
   -8.3634   -0.3103  -21.8431 C   0  0  0  0  0  0  0  0  0  0  0  0
   -7.4401   -1.4027  -21.2741 C   0  0  0  0  0  0  0  0  0  0  0  0
   -6.5718   -0.8301  -20.1705 C   0  0  0  0  0  0  0  0  0  0  0  0
   -6.8761   -1.0389  -18.8525 C   0  0  0  0  0  0  0  0  0  0  0  0
   -6.1903   -0.5339  -17.7904 N   0  0  0  0  0  0  0  0  0  0  0  0
   -5.1561    0.2219  -18.0633 C   0  0  0  0  0  0  0  0  0  0  0  0
   -4.7208    0.5350  -19.3797 C   0  0  0  0  0  0  0  0  0  0  0  0
   -3.5992    1.3709  -19.6249 C   0  0  0  0  0  0  0  0  0  0  0  0
   -3.2144    1.6652  -20.9024 C   0  0  0  0  0  0  0  0  0  0  0  0
   -3.9334    1.1312  -21.9940 C   0  0  0  0  0  0  0  0  0  0  0  0
   -5.0216    0.3213  -21.7856 C   0  0  0  0  0  0  0  0  0  0  0  0
   -5.4492   -0.0025  -20.4696 C   0  0  0  0  0  0  0  0  0  0  0  0
   -5.5581   -0.0742  -22.6437 H   0  0  0  0  0  0  0  0  0  0  0  0
   -3.6221    1.3736  -23.0075 H   0  0  0  0  0  0  0  0  0  0  0  0
   -2.3632    2.3171  -21.0873 H   0  0  0  0  0  0  0  0  0  0  0  0
   -3.0642    1.7869  -18.7740 H   0  0  0  0  0  0  0  0  0  0  0  0
   -4.5995    0.6300  -17.2164 H   0  0  0  0  0  0  0  0  0  0  0  0
   -7.7320   -1.6597  -18.5835 H   0  0  0  0  0  0  0  0  0  0  0  0
   -6.8274   -1.8727  -22.0481 H   0  0  0  0  0  0  0  0  0  0  0  0
   -8.0877   -2.1791  -20.8507 H   0  0  0  0  0  0  0  0  0  0  0  0
   -8.2939   -0.0132  -23.2074 N   0  0  0  0  0  0  0  0  0  0  0  0
   -8.1279   -1.0379  -24.2347 C   0  0  0  0  0  0  0  0  0  0  0  0
   -9.2111   -2.0920  -24.1686 C   0  0  0  0  0  0  0  0  0  0  0  0
   -8.9191   -3.3932  -23.7733 C   0  0  0  0  0  0  0  0  0  0  0  0
   -9.9300   -4.3430  -23.6746 C   0  0  0  0  0  0  0  0  0  0  0  0
  -11.2457   -4.0100  -23.9651 C   0  0  0  0  0  0  0  0  0  0  0  0
  -11.5308   -2.7086  -24.3564 C   0  0  0  0  0  0  0  0  0  0  0  0
  -13.1773   -2.2736  -24.7237 Cl  0  0  0  0  0  0  0  0  0  0  0  0
  -10.5323   -1.7498  -24.4588 C   0  0  0  0  0  0  0  0  0  0  0  0
  -10.8055   -0.7437  -24.7680 H   0  0  0  0  0  0  0  0  0  0  0  0
  -12.0376   -4.7489  -23.8896 H   0  0  0  0  0  0  0  0  0  0  0  0
   -9.6926   -5.3575  -23.3713 H   0  0  0  0  0  0  0  0  0  0  0  0
   -7.8916   -3.6683  -23.5413 H   0  0  0  0  0  0  0  0  0  0  0  0
   -7.1379   -1.4978  -24.1399 H   0  0  0  0  0  0  0  0  0  0  0  0
   -8.1484   -0.5442  -25.2083 H   0  0  0  0  0  0  0  0  0  0  0  0
   -8.5119    1.3664  -23.5705 C   0  0  2  0  0  0  0  0  0  0  0  0
   -7.4482    2.3887  -23.1076 C   0  0  0  0  0  0  0  0  0  0  0  0
   -8.0774    3.6530  -23.6574 N   0  0  1  0  0  4  0  0  0  0  0  0
   -7.2277    4.4679  -24.5320 C   0  0  0  0  0  0  0  0  0  0  0  0
   -6.3742    5.5272  -23.9163 C   0  0  0  0  0  0  0  0  0  0  0  0
   -7.5821    5.9078  -24.7276 C   0  0  0  0  0  0  0  0  0  0  0  0
   -8.4565    6.2628  -24.1898 H   0  0  0  0  0  0  0  0  0  0  0  0
   -7.4249    6.3613  -25.7012 H   0  0  0  0  0  0  0  0  0  0  0  0
   -6.4393    5.6128  -22.8358 H   0  0  0  0  0  0  0  0  0  0  0  0
   -5.3935    5.7137  -24.3419 H   0  0  0  0  0  0  0  0  0  0  0  0
   -6.8226    3.9381  -25.3819 H   0  0  0  0  0  0  0  0  0  0  0  0
   -9.3037    3.0753  -24.3196 C   0  0  2  0  0  0  0  0  0  0  0  0
   -9.8064    2.1351  -23.2204 C   0  0  0  0  0  0  0  0  0  0  0  0
   -9.8577    2.5475  -22.2114 H   0  0  0  0  0  0  0  0  0  0  0  0
  -10.7129    1.5915  -23.4849 H   0  0  0  0  0  0  0  0  0  0  0  0
   -8.7303    1.8381  -25.0263 C   0  0  0  0  0  0  0  0  0  0  0  0
   -7.8313    1.9801  -25.6339 H   0  0  0  0  0  0  0  0  0  0  0  0
   -9.4950    1.2894  -25.5703 H   0  0  0  0  0  0  0  0  0  0  0  0
   -9.9374    3.8100  -24.8055 H   0  0  0  0  0  0  0  0  0  0  0  0
   -8.3750    4.2599  -22.8736 H   0  0  0  0  0  0  0  0  0  0  0  0
   -6.4714    2.2519  -23.5691 H   0  0  0  0  0  0  0  0  0  0  0  0
   -7.3453    2.4473  -22.0231 H   0  0  0  0  0  0  0  0  0  0  0  0
  1  2  2  0
  2  3  1  0
  3  4  1  0
  4  5  2  0
  5  6  1  0
  6  7  2  0
  7  8  1  0
  8  9  2  0
  9 10  1  0
 10 11  2  0
 11 12  1  0
 12 13  2  0
 12 14  1  0
 11 15  1  0
 10 16  1  0
  9 17  1  0
  7 18  1  0
  5 19  1  0
  3 20  1  0
  3 21  1  0
  2 22  1  0
 22 23  1  0
 23 24  1  0
 24 25  2  0
 25 26  1  0
 26 27  2  0
 27 28  1  0
 28 29  1  0
 28 30  2  0
 30 31  1  0
 27 32  1  0
 26 33  1  0
 25 34  1  0
 23 35  1  0
 23 36  1  0
 37 22  1  6
 37 38  1  0
 38 39  1  0
 39 40  1  0
 40 41  1  0
 41 42  1  0
 42 43  1  0
 42 44  1  0
 41 45  1  0
 41 46  1  0
 40 47  1  0
 39 48  1  0
 48 49  1  0
 49 50  1  0
 49 51  1  0
 48 52  1  0
 52 53  1  0
 52 54  1  0
 48 55  1  6
 39 56  1  1
 38 57  1  0
 38 58  1  0
 13  4  1  0
 30 24  1  0
 49 37  1  0
 13  8  1  0
 52 37  1  0
 42 40  1  0
M  CHG  1  39   1
M  END
>  <cnnaffinities>  (45) 
[6.32183]

>  <score>  (45) 
6.32183

>  <index>  (45) 
47

>  <Smiles>  (45) 
O=C(C(c1c(nc(c2c(c(c(c(c12)[H])[H])[H])[H])[H])[H])([H])[H])N(C(c1c(c(c(c(Cl)c1[H])[H])[H])[H])([H])[H])[C@]12C([N@@+](C3(C(C3([H])[H])([H])[H])[H])([C@](C1([H])[H])(C2([H])[H])[H])[H])([H])[H]

>  <h>  (45) 
<NA>

>  <Training>  (45) 
True

>  <Success>  (45) 
True

>  <enamine_searched>  (45) 
False

>  <enamine_id>  (45) 
nan

$$$$

     RDKit          3D

 46 48  0  0  0  0  0  0  0  0999 V2000
  -13.2100   -3.7763  -22.7337 C   0  0  0  0  0  0  0  0  0  0  0  0
  -13.2245   -2.7915  -23.9054 C   0  0  0  0  0  0  0  0  0  0  0  0
  -14.5755   -2.0606  -23.9281 C   0  0  0  0  0  0  0  0  0  0  0  0
  -15.3776   -2.7923  -24.0777 H   0  0  0  0  0  0  0  0  0  0  0  0
  -14.6476   -1.3185  -24.7322 H   0  0  0  0  0  0  0  0  0  0  0  0
  -14.7775   -1.5414  -22.9808 H   0  0  0  0  0  0  0  0  0  0  0  0
  -12.0185   -1.8279  -23.9857 C   0  0  0  0  0  0  0  0  0  0  0  0
  -11.9864   -0.7504  -22.8983 C   0  0  0  0  0  0  0  0  0  0  0  0
  -10.6330   -0.0701  -22.8916 C   0  0  0  0  0  0  0  0  0  0  0  0
   -9.5821   -0.9854  -22.4638 N   0  0  0  0  0  0  0  0  0  0  0  0
   -8.5362   -0.4512  -21.7604 C   0  0  0  0  0  0  0  0  0  0  0  0
   -8.4699    0.7473  -21.5215 O   0  0  0  0  0  0  0  0  0  0  0  0
   -7.4674   -1.4232  -21.2591 C   0  0  0  0  0  0  0  0  0  0  0  0
   -6.6036   -0.8324  -20.1851 C   0  0  0  0  0  0  0  0  0  0  0  0
   -6.9118   -1.0465  -18.8637 C   0  0  0  0  0  0  0  0  0  0  0  0
   -6.2300   -0.5406  -17.8031 N   0  0  0  0  0  0  0  0  0  0  0  0
   -5.1897    0.2112  -18.0726 C   0  0  0  0  0  0  0  0  0  0  0  0
   -4.7492    0.5131  -19.3900 C   0  0  0  0  0  0  0  0  0  0  0  0
   -3.6207    1.3382  -19.6225 C   0  0  0  0  0  0  0  0  0  0  0  0
   -3.2280    1.6339  -20.9000 C   0  0  0  0  0  0  0  0  0  0  0  0
   -3.9508    1.1180  -22.0007 C   0  0  0  0  0  0  0  0  0  0  0  0
   -5.0548    0.3217  -21.7982 C   0  0  0  0  0  0  0  0  0  0  0  0
   -5.4792   -0.0073  -20.4818 C   0  0  0  0  0  0  0  0  0  0  0  0
   -5.6248   -0.0388  -22.6481 H   0  0  0  0  0  0  0  0  0  0  0  0
   -3.6356    1.3653  -23.0112 H   0  0  0  0  0  0  0  0  0  0  0  0
   -2.3730    2.2823  -21.0724 H   0  0  0  0  0  0  0  0  0  0  0  0
   -3.0988    1.7448  -18.7589 H   0  0  0  0  0  0  0  0  0  0  0  0
   -4.6306    0.6248  -17.2306 H   0  0  0  0  0  0  0  0  0  0  0  0
   -7.7564   -1.6797  -18.5930 H   0  0  0  0  0  0  0  0  0  0  0  0
   -6.8775   -1.7702  -22.1188 H   0  0  0  0  0  0  0  0  0  0  0  0
   -7.9926   -2.2995  -20.8650 H   0  0  0  0  0  0  0  0  0  0  0  0
   -9.7673   -2.3946  -22.8097 C   0  0  0  0  0  0  0  0  0  0  0  0
  -10.6155   -2.4955  -24.0925 C   0  0  0  0  0  0  0  0  0  0  0  0
  -10.6886   -3.5453  -24.4087 H   0  0  0  0  0  0  0  0  0  0  0  0
  -10.0563   -1.9644  -24.8778 H   0  0  0  0  0  0  0  0  0  0  0  0
   -8.7868   -2.8605  -22.9650 H   0  0  0  0  0  0  0  0  0  0  0  0
  -10.2563   -2.9328  -21.9829 H   0  0  0  0  0  0  0  0  0  0  0  0
  -10.3948    0.3056  -23.8993 H   0  0  0  0  0  0  0  0  0  0  0  0
  -10.6293    0.7887  -22.2267 H   0  0  0  0  0  0  0  0  0  0  0  0
  -12.7303    0.0043  -23.1679 H   0  0  0  0  0  0  0  0  0  0  0  0
  -12.1937   -1.1462  -21.8960 H   0  0  0  0  0  0  0  0  0  0  0  0
  -12.1552   -1.2740  -24.9320 H   0  0  0  0  0  0  0  0  0  0  0  0
  -13.1535   -3.3779  -24.8318 H   0  0  0  0  0  0  0  0  0  0  0  0
  -13.9926   -4.5289  -22.8790 H   0  0  0  0  0  0  0  0  0  0  0  0
  -13.4194   -3.2826  -21.7763 H   0  0  0  0  0  0  0  0  0  0  0  0
  -12.2627   -4.3160  -22.6386 H   0  0  0  0  0  0  0  0  0  0  0  0
  1  2  1  0
  2  3  1  0
  3  4  1  0
  3  5  1  0
  3  6  1  0
  2  7  1  0
  7  8  1  0
  8  9  1  0
  9 10  1  0
 10 11  1  0
 11 12  2  0
 11 13  1  0
 13 14  1  0
 14 15  2  0
 15 16  1  0
 16 17  2  0
 17 18  1  0
 18 19  2  0
 19 20  1  0
 20 21  2  0
 21 22  1  0
 22 23  2  0
 22 24  1  0
 21 25  1  0
 20 26  1  0
 19 27  1  0
 17 28  1  0
 15 29  1  0
 13 30  1  0
 13 31  1  0
 10 32  1  0
 32 33  1  0
 33 34  1  0
 33 35  1  0
 32 36  1  0
 32 37  1  0
  9 38  1  0
  9 39  1  0
  8 40  1  0
  8 41  1  0
  7 42  1  0
  2 43  1  0
  1 44  1  0
  1 45  1  0
  1 46  1  0
 33  7  1  0
 23 14  1  0
 23 18  1  0
M  END
>  <cnnaffinities>  (46) 
[5.07582, 5.07501, 5.07327, 5.03945, 5.03885, 5.0388, 5.09189, 5.09301]

>  <score>  (46) 
5.07582

>  <index>  (46) 
48

>  <Smiles>  (46) 
C(C(C([H])([H])[H])(C1(C(C(N(C(=O)C(c2c(nc(c3c(c(c(c(c23)[H])[H])[H])[H])[H])[H])([H])[H])C(C1([H])[H])([H])[H])([H])[H])([H])[H])[H])[H])([H])([H])[H]

>  <h>  (46) 
<NA>

>  <Training>  (46) 
True

>  <Success>  (46) 
True

>  <enamine_searched>  (46) 
False

>  <enamine_id>  (46) 
nan

$$$$

     RDKit          3D

 67 72  0  0  0  0  0  0  0  0999 V2000
   -7.9100   -0.3910  -29.2033 C   0  0  0  0  0  0  0  0  0  0  0  0
   -8.1372   -1.3571  -28.1491 N   0  0  0  0  0  0  0  0  0  0  0  0
   -7.1974   -1.5661  -27.1978 C   0  0  0  0  0  0  0  0  0  0  0  0
   -6.1640   -0.9156  -27.1137 O   0  0  0  0  0  0  0  0  0  0  0  0
   -7.5253   -2.7043  -26.2264 C   0  0  0  0  0  0  0  0  0  0  0  0
   -8.5393   -2.3692  -25.2473 N   0  0  0  0  0  0  0  0  0  0  0  0
   -8.1684   -1.5587  -24.1066 C   0  0  0  0  0  0  0  0  0  0  0  0
   -8.9731   -1.9035  -22.8284 C   0  0  2  0  0  0  0  0  0  0  0  0
   -8.5861   -0.8005  -21.7976 C   0  0  0  0  0  0  0  0  0  0  0  0
   -9.0586    0.3012  -21.6462 O   0  0  0  0  0  0  0  0  0  0  0  0
   -7.5032   -1.2938  -21.0818 N   0  0  0  0  0  0  0  0  0  0  0  0
   -6.7765   -0.5853  -20.0855 C   0  0  0  0  0  0  0  0  0  0  0  0
   -7.1237   -0.7413  -18.7663 C   0  0  0  0  0  0  0  0  0  0  0  0
   -6.4158   -0.2623  -17.7113 N   0  0  0  0  0  0  0  0  0  0  0  0
   -5.3119    0.3914  -17.9852 C   0  0  0  0  0  0  0  0  0  0  0  0
   -4.8273    0.6322  -19.3025 C   0  0  0  0  0  0  0  0  0  0  0  0
   -3.6246    1.3483  -19.5337 C   0  0  0  0  0  0  0  0  0  0  0  0
   -3.1818    1.5674  -20.8088 C   0  0  0  0  0  0  0  0  0  0  0  0
   -3.9289    1.0958  -21.9089 C   0  0  0  0  0  0  0  0  0  0  0  0
   -5.1036    0.4122  -21.7120 C   0  0  0  0  0  0  0  0  0  0  0  0
   -5.5789    0.1458  -20.3987 C   0  0  0  0  0  0  0  0  0  0  0  0
   -5.6916    0.0827  -22.5635 H   0  0  0  0  0  0  0  0  0  0  0  0
   -3.5775    1.2924  -22.9167 H   0  0  0  0  0  0  0  0  0  0  0  0
   -2.2608    2.1154  -20.9809 H   0  0  0  0  0  0  0  0  0  0  0  0
   -3.0828    1.7338  -18.6749 H   0  0  0  0  0  0  0  0  0  0  0  0
   -4.7336    0.7664  -17.1406 H   0  0  0  0  0  0  0  0  0  0  0  0
   -8.0245   -1.3040  -18.5226 H   0  0  0  0  0  0  0  0  0  0  0  0
   -7.1999   -2.6806  -21.3775 C   0  0  0  0  0  0  0  0  0  0  0  0
   -8.4847   -3.1644  -22.0407 C   0  0  2  0  0  0  0  0  0  0  0  0
   -8.2784   -4.4742  -22.7899 C   0  0  0  0  0  0  0  0  0  0  0  0
   -9.4943   -4.9970  -23.3748 N   0  0  0  0  0  0  0  0  0  0  0  0
   -9.5032   -5.5665  -24.6172 C   0  0  0  0  0  0  0  0  0  0  0  0
   -8.4510   -6.0305  -25.3632 C   0  0  0  0  0  0  0  0  0  0  0  0
   -8.7365   -6.4043  -26.6529 N   0  0  0  0  0  0  0  0  0  0  0  0
   -9.9964   -6.2485  -26.9142 C   0  0  0  0  0  0  0  0  0  0  0  0
  -10.5794   -6.4398  -28.2746 C   0  0  0  0  0  0  0  0  0  0  0  0
   -9.9267   -7.1041  -28.8415 H   0  0  0  0  0  0  0  0  0  0  0  0
  -11.5844   -6.8601  -28.2370 H   0  0  0  0  0  0  0  0  0  0  0  0
  -10.6238   -5.4760  -28.8001 H   0  0  0  0  0  0  0  0  0  0  0  0
  -10.9785   -5.7459  -25.5470 S   0  0  0  0  0  0  0  0  0  0  0  0
   -7.4259   -6.1087  -25.0207 H   0  0  0  0  0  0  0  0  0  0  0  0
  -10.3873   -4.6774  -23.0206 H   0  0  0  0  0  0  0  0  0  0  0  0
   -7.5520   -4.3123  -23.5929 H   0  0  0  0  0  0  0  0  0  0  0  0
   -7.8420   -5.2077  -22.1026 H   0  0  0  0  0  0  0  0  0  0  0  0
   -9.2388   -3.3272  -21.2571 H   0  0  0  0  0  0  0  0  0  0  0  0
   -6.3592   -2.7750  -22.0851 H   0  0  0  0  0  0  0  0  0  0  0  0
   -6.9193   -3.2273  -20.4710 H   0  0  0  0  0  0  0  0  0  0  0  0
  -10.4331   -1.9775  -23.1998 C   0  0  0  0  0  0  0  0  0  0  0  0
  -11.4096   -1.8563  -22.1997 C   0  0  0  0  0  0  0  0  0  0  0  0
  -12.7494   -1.8645  -22.5534 C   0  0  0  0  0  0  0  0  0  0  0  0
  -13.9909   -1.6984  -21.3444 Cl  0  0  0  0  0  0  0  0  0  0  0  0
  -13.1460   -2.0385  -23.8784 C   0  0  0  0  0  0  0  0  0  0  0  0
  -12.1877   -2.2690  -24.8475 C   0  0  0  0  0  0  0  0  0  0  0  0
  -10.8358   -2.2312  -24.5227 C   0  0  0  0  0  0  0  0  0  0  0  0
   -9.8415   -2.5246  -25.6024 C   0  0  0  0  0  0  0  0  0  0  0  0
  -10.1595   -2.9136  -26.7295 O   0  0  0  0  0  0  0  0  0  0  0  0
  -12.4820   -2.4798  -25.8703 H   0  0  0  0  0  0  0  0  0  0  0  0
  -14.1974   -2.0106  -24.1398 H   0  0  0  0  0  0  0  0  0  0  0  0
  -11.1096   -1.7185  -21.1644 H   0  0  0  0  0  0  0  0  0  0  0  0
   -8.3237   -0.4912  -24.3244 H   0  0  0  0  0  0  0  0  0  0  0  0
   -7.0990   -1.7076  -23.9271 H   0  0  0  0  0  0  0  0  0  0  0  0
   -6.6102   -2.9680  -25.6954 H   0  0  0  0  0  0  0  0  0  0  0  0
   -7.9102   -3.5746  -26.7622 H   0  0  0  0  0  0  0  0  0  0  0  0
   -9.0001   -1.8848  -28.1051 H   0  0  0  0  0  0  0  0  0  0  0  0
   -7.8299    0.6286  -28.8065 H   0  0  0  0  0  0  0  0  0  0  0  0
   -8.7432   -0.4398  -29.9089 H   0  0  0  0  0  0  0  0  0  0  0  0
   -6.9822   -0.6214  -29.7393 H   0  0  0  0  0  0  0  0  0  0  0  0
  1  2  1  0
  2  3  1  0
  3  4  2  0
  3  5  1  0
  5  6  1  0
  6  7  1  0
  8  7  1  6
  8  9  1  0
  9 10  2  0
  9 11  1  0
 11 12  1  0
 12 13  2  0
 13 14  1  0
 14 15  2  0
 15 16  1  0
 16 17  2  0
 17 18  1  0
 18 19  2  0
 19 20  1  0
 20 21  2  0
 20 22  1  0
 19 23  1  0
 18 24  1  0
 17 25  1  0
 15 26  1  0
 13 27  1  0
 11 28  1  0
 28 29  1  0
 29 30  1  0
 30 31  1  0
 31 32  1  0
 32 33  2  0
 33 34  1  0
 34 35  2  0
 35 36  1  0
 36 37  1  0
 36 38  1  0
 36 39  1  0
 35 40  1  0
 33 41  1  0
 31 42  1  0
 30 43  1  0
 30 44  1  0
 29 45  1  1
 28 46  1  0
 28 47  1  0
  8 48  1  0
 48 49  2  0
 49 50  1  0
 50 51  1  0
 50 52  2  0
 52 53  1  0
 53 54  2  0
 54 55  1  0
 55 56  2  0
 53 57  1  0
 52 58  1  0
 49 59  1  0
  7 60  1  0
  7 61  1  0
  5 62  1  0
  5 63  1  0
  2 64  1  0
  1 65  1  0
  1 66  1  0
  1 67  1  0
 55  6  1  0
 29  8  1  0
 40 32  1  0
 54 48  1  0
 21 12  1  0
 21 16  1  0
M  END
>  <cnnaffinities>  (47) 
[6.49193]

>  <score>  (47) 
6.49193

>  <index>  (47) 
49

>  <Smiles>  (47) 
C(N(C(=O)C(N1C([C@@]2(C(=O)N(c3c(nc(c4c(c(c(c(c34)[H])[H])[H])[H])[H])[H])C([C@@]2(C(N(c2c(nc(C([H])([H])[H])s2)[H])[H])([H])[H])[H])([H])[H])c2c(c(Cl)c(c(c2C1=O)[H])[H])[H])([H])[H])([H])[H])[H])([H])([H])[H]

>  <h>  (47) 
<NA>

>  <Training>  (47) 
True

>  <Success>  (47) 
True

>  <enamine_searched>  (47) 
False

>  <enamine_id>  (47) 
nan

$$$$

     RDKit          3D

 66 70  0  0  0  0  0  0  0  0999 V2000
   -7.4434    3.3513  -21.8181 C   0  0  0  0  0  0  0  0  0  0  0  0
   -8.3560    2.8834  -22.8450 N   0  0  0  0  0  0  0  0  0  0  0  0
   -7.8397    2.1590  -23.8648 C   0  0  0  0  0  0  0  0  0  0  0  0
   -6.6311    2.0142  -24.0138 O   0  0  0  0  0  0  0  0  0  0  0  0
   -8.8452    1.5423  -24.8461 C   0  0  0  0  0  0  0  0  0  0  0  0
   -9.5411    0.3815  -24.3190 N   0  0  0  0  0  0  0  0  0  0  0  0
   -8.8088   -0.8641  -24.1765 C   0  0  0  0  0  0  0  0  0  0  0  0
   -9.1278   -1.5702  -22.8329 C   0  0  2  0  0  0  0  0  0  0  0  0
   -8.5424   -0.7503  -21.6509 C   0  0  0  0  0  0  0  0  0  0  0  0
   -8.9820    0.2781  -21.1832 O   0  0  0  0  0  0  0  0  0  0  0  0
   -7.4055   -1.3845  -21.1993 N   0  0  0  0  0  0  0  0  0  0  0  0
   -6.6075   -0.8079  -20.1728 C   0  0  0  0  0  0  0  0  0  0  0  0
   -6.9113   -1.0386  -18.8557 C   0  0  0  0  0  0  0  0  0  0  0  0
   -6.2061   -0.5452  -17.8067 N   0  0  0  0  0  0  0  0  0  0  0  0
   -5.1676    0.2080  -18.0777 C   0  0  0  0  0  0  0  0  0  0  0  0
   -4.7281    0.5255  -19.3933 C   0  0  0  0  0  0  0  0  0  0  0  0
   -3.5994    1.3555  -19.6424 C   0  0  0  0  0  0  0  0  0  0  0  0
   -3.2137    1.6462  -20.9211 C   0  0  0  0  0  0  0  0  0  0  0  0
   -3.9383    1.1187  -22.0151 C   0  0  0  0  0  0  0  0  0  0  0  0
   -5.0326    0.3140  -21.8001 C   0  0  0  0  0  0  0  0  0  0  0  0
   -5.4651   -0.0005  -20.4847 C   0  0  0  0  0  0  0  0  0  0  0  0
   -5.5931   -0.0695  -22.6479 H   0  0  0  0  0  0  0  0  0  0  0  0
   -3.6444    1.3618  -23.0298 H   0  0  0  0  0  0  0  0  0  0  0  0
   -2.3617    2.2960  -21.1016 H   0  0  0  0  0  0  0  0  0  0  0  0
   -3.0712    1.7714  -18.7877 H   0  0  0  0  0  0  0  0  0  0  0  0
   -4.6183    0.6127  -17.2268 H   0  0  0  0  0  0  0  0  0  0  0  0
   -7.7599   -1.6662  -18.5949 H   0  0  0  0  0  0  0  0  0  0  0  0
   -7.0768   -2.6080  -21.9085 C   0  0  0  0  0  0  0  0  0  0  0  0
   -8.3670   -2.9285  -22.6965 C   0  0  2  0  0  0  0  0  0  0  0  0
   -8.0850   -3.6768  -23.9994 C   0  0  0  0  0  0  0  0  0  0  0  0
   -7.4726   -4.9199  -23.7041 O   0  0  0  0  0  0  0  0  0  0  0  0
   -7.3039   -5.7632  -24.8482 C   0  0  0  0  0  0  0  0  0  0  0  0
   -8.4380   -6.7872  -24.9209 C   0  0  0  0  0  0  0  0  0  0  0  0
   -8.4379   -7.4087  -24.0193 H   0  0  0  0  0  0  0  0  0  0  0  0
   -8.3140   -7.4394  -25.7944 H   0  0  0  0  0  0  0  0  0  0  0  0
   -9.4143   -6.2951  -25.0007 H   0  0  0  0  0  0  0  0  0  0  0  0
   -5.9403   -6.4422  -24.7563 C   0  0  0  0  0  0  0  0  0  0  0  0
   -5.8870   -7.0663  -23.8587 H   0  0  0  0  0  0  0  0  0  0  0  0
   -5.7718   -7.0801  -25.6328 H   0  0  0  0  0  0  0  0  0  0  0  0
   -5.1408   -5.6969  -24.7117 H   0  0  0  0  0  0  0  0  0  0  0  0
   -7.3289   -5.1344  -25.7560 H   0  0  0  0  0  0  0  0  0  0  0  0
   -9.0194   -3.8317  -24.5642 H   0  0  0  0  0  0  0  0  0  0  0  0
   -7.4116   -3.0853  -24.6439 H   0  0  0  0  0  0  0  0  0  0  0  0
   -8.9779   -3.5936  -22.0839 H   0  0  0  0  0  0  0  0  0  0  0  0
   -6.8026   -3.3999  -21.2030 H   0  0  0  0  0  0  0  0  0  0  0  0
   -6.2163   -2.4619  -22.5802 H   0  0  0  0  0  0  0  0  0  0  0  0
  -10.6396   -1.6335  -22.7008 C   0  0  0  0  0  0  0  0  0  0  0  0
  -11.2297   -2.5220  -21.7985 C   0  0  0  0  0  0  0  0  0  0  0  0
  -12.6005   -2.5386  -21.6481 C   0  0  0  0  0  0  0  0  0  0  0  0
  -13.1533   -3.3911  -20.7711 F   0  0  0  0  0  0  0  0  0  0  0  0
  -13.4395   -1.6982  -22.3699 C   0  0  0  0  0  0  0  0  0  0  0  0
  -12.8579   -0.7905  -23.2322 C   0  0  0  0  0  0  0  0  0  0  0  0
  -11.4720   -0.7214  -23.3681 C   0  0  0  0  0  0  0  0  0  0  0  0
  -10.9001    0.4168  -24.1603 C   0  0  0  0  0  0  0  0  0  0  0  0
  -11.6011    1.3180  -24.5976 O   0  0  0  0  0  0  0  0  0  0  0  0
  -13.4512   -0.0661  -23.7801 H   0  0  0  0  0  0  0  0  0  0  0  0
  -14.5102   -1.7453  -22.2087 H   0  0  0  0  0  0  0  0  0  0  0  0
  -10.6335   -3.1967  -21.1975 H   0  0  0  0  0  0  0  0  0  0  0  0
   -9.0492   -1.5475  -25.0076 H   0  0  0  0  0  0  0  0  0  0  0  0
   -7.7460   -0.6113  -24.2182 H   0  0  0  0  0  0  0  0  0  0  0  0
   -8.2538    1.2749  -25.7289 H   0  0  0  0  0  0  0  0  0  0  0  0
   -9.6295    2.2466  -25.1395 H   0  0  0  0  0  0  0  0  0  0  0  0
   -9.3516    2.8475  -22.6649 H   0  0  0  0  0  0  0  0  0  0  0  0
   -8.0218    3.8307  -21.0290 H   0  0  0  0  0  0  0  0  0  0  0  0
   -6.8535    2.5058  -21.4263 H   0  0  0  0  0  0  0  0  0  0  0  0
   -6.7450    4.0920  -22.2254 H   0  0  0  0  0  0  0  0  0  0  0  0
  1  2  1  0
  2  3  1  0
  3  4  2  0
  3  5  1  0
  5  6  1  0
  6  7  1  0
  8  7  1  6
  8  9  1  0
  9 10  2  0
  9 11  1  0
 11 12  1  0
 12 13  2  0
 13 14  1  0
 14 15  2  0
 15 16  1  0
 16 17  2  0
 17 18  1  0
 18 19  2  0
 19 20  1  0
 20 21  2  0
 20 22  1  0
 19 23  1  0
 18 24  1  0
 17 25  1  0
 15 26  1  0
 13 27  1  0
 11 28  1  0
 28 29  1  0
 29 30  1  0
 30 31  1  0
 31 32  1  0
 32 33  1  0
 33 34  1  0
 33 35  1  0
 33 36  1  0
 32 37  1  0
 37 38  1  0
 37 39  1  0
 37 40  1  0
 32 41  1  0
 30 42  1  0
 30 43  1  0
 29 44  1  1
 28 45  1  0
 28 46  1  0
  8 47  1  0
 47 48  2  0
 48 49  1  0
 49 50  1  0
 49 51  2  0
 51 52  1  0
 52 53  2  0
 53 54  1  0
 54 55  2  0
 52 56  1  0
 51 57  1  0
 48 58  1  0
  7 59  1  0
  7 60  1  0
  5 61  1  0
  5 62  1  0
  2 63  1  0
  1 64  1  0
  1 65  1  0
  1 66  1  0
 54  6  1  0
 29  8  1  0
 53 47  1  0
 21 12  1  0
 21 16  1  0
M  END
>  <cnnaffinities>  (48) 
[6.5441, 6.56918, 6.47659, 6.53477]

>  <score>  (48) 
6.5441

>  <index>  (48) 
50

>  <Smiles>  (48) 
C(N(C(=O)C(N1C([C@@]2(C(=O)N(c3c(nc(c4c(c(c(c(c34)[H])[H])[H])[H])[H])[H])C([C@@]2(C(OC(C([H])([H])[H])(C([H])([H])[H])[H])([H])[H])[H])([H])[H])c2c(c(F)c(c(c2C1=O)[H])[H])[H])([H])[H])([H])[H])[H])([H])([H])[H]

>  <h>  (48) 
<NA>

>  <Training>  (48) 
True

>  <Success>  (48) 
True

>  <enamine_searched>  (48) 
False

>  <enamine_id>  (48) 
nan

$$$$

     RDKit          3D

 50 52  0  0  0  0  0  0  0  0999 V2000
   -9.3206   -1.2798  -26.2841 C   0  0  0  0  0  0  0  0  0  0  0  0
   -8.9948   -0.3933  -25.3465 C   0  0  0  0  0  0  0  0  0  0  0  0
   -9.5925   -0.4543  -23.9569 C   0  0  0  0  0  0  0  0  0  0  0  0
   -8.7684   -1.2501  -23.0532 N   0  0  0  0  0  0  0  0  0  0  0  0
   -8.0168   -0.5512  -22.1335 C   0  0  0  0  0  0  0  0  0  0  0  0
   -7.9855    0.6735  -22.0941 O   0  0  0  0  0  0  0  0  0  0  0  0
   -7.3122   -1.3571  -21.2749 N   0  0  0  0  0  0  0  0  0  0  0  0
   -6.5742   -0.8017  -20.2190 C   0  0  0  0  0  0  0  0  0  0  0  0
   -6.9158   -1.0505  -18.9166 C   0  0  0  0  0  0  0  0  0  0  0  0
   -6.2536   -0.5490  -17.8469 N   0  0  0  0  0  0  0  0  0  0  0  0
   -5.2133    0.2130  -18.0952 C   0  0  0  0  0  0  0  0  0  0  0  0
   -4.7476    0.5315  -19.4017 C   0  0  0  0  0  0  0  0  0  0  0  0
   -3.6047    1.3425  -19.6304 C   0  0  0  0  0  0  0  0  0  0  0  0
   -3.1766    1.6043  -20.9042 C   0  0  0  0  0  0  0  0  0  0  0  0
   -3.8697    1.0716  -22.0156 C   0  0  0  0  0  0  0  0  0  0  0  0
   -4.9797    0.2946  -21.8218 C   0  0  0  0  0  0  0  0  0  0  0  0
   -5.4490    0.0134  -20.5072 C   0  0  0  0  0  0  0  0  0  0  0  0
   -5.5282   -0.1000  -22.6688 H   0  0  0  0  0  0  0  0  0  0  0  0
   -3.5334    1.3009  -23.0248 H   0  0  0  0  0  0  0  0  0  0  0  0
   -2.3018    2.2262  -21.0644 H   0  0  0  0  0  0  0  0  0  0  0  0
   -3.0899    1.7581  -18.7686 H   0  0  0  0  0  0  0  0  0  0  0  0
   -4.6822    0.6115  -17.2309 H   0  0  0  0  0  0  0  0  0  0  0  0
   -7.7772   -1.6780  -18.6913 H   0  0  0  0  0  0  0  0  0  0  0  0
   -7.6451   -2.3057  -21.1610 H   0  0  0  0  0  0  0  0  0  0  0  0
   -8.4354   -2.5742  -23.4671 C   0  0  0  0  0  0  0  0  0  0  0  0
   -9.4512   -3.5051  -23.6646 C   0  0  0  0  0  0  0  0  0  0  0  0
   -9.1475   -4.7880  -24.1029 C   0  0  0  0  0  0  0  0  0  0  0  0
   -7.8356   -5.1498  -24.3928 C   0  0  0  0  0  0  0  0  0  0  0  0
   -6.8424   -4.1871  -24.2600 C   0  0  0  0  0  0  0  0  0  0  0  0
   -5.1995   -4.6028  -24.6681 Cl  0  0  0  0  0  0  0  0  0  0  0  0
   -7.1236   -2.9052  -23.8127 C   0  0  0  0  0  0  0  0  0  0  0  0
   -6.3295   -2.1665  -23.7574 H   0  0  0  0  0  0  0  0  0  0  0  0
   -7.5912   -6.1511  -24.7376 H   0  0  0  0  0  0  0  0  0  0  0  0
   -9.9492   -5.5095  -24.2401 H   0  0  0  0  0  0  0  0  0  0  0  0
  -10.4821   -3.2117  -23.4908 H   0  0  0  0  0  0  0  0  0  0  0  0
   -9.6988    0.5246  -23.4848 H   0  0  0  0  0  0  0  0  0  0  0  0
  -10.5805   -0.9252  -24.0104 H   0  0  0  0  0  0  0  0  0  0  0  0
   -7.8448    0.5219  -25.6959 C   0  0  0  0  0  0  0  0  0  0  0  0
   -7.2183    0.3440  -26.7315 O   0  0  0  0  0  0  0  0  0  0  0  0
   -7.5236    1.5304  -24.8428 N   0  0  0  0  0  0  0  0  0  0  0  0
   -6.2002    2.1237  -24.9712 C   0  0  0  0  0  0  0  0  0  0  0  0
   -6.0343    3.2032  -23.9162 C   0  0  0  0  0  0  0  0  0  0  0  0
   -6.7297    4.0345  -24.0871 H   0  0  0  0  0  0  0  0  0  0  0  0
   -6.2233    2.7721  -22.9210 H   0  0  0  0  0  0  0  0  0  0  0  0
   -5.0184    3.6100  -23.9207 H   0  0  0  0  0  0  0  0  0  0  0  0
   -6.0786    2.5048  -25.9898 H   0  0  0  0  0  0  0  0  0  0  0  0
   -5.4320    1.3434  -24.8448 H   0  0  0  0  0  0  0  0  0  0  0  0
   -7.9243    1.5616  -23.9102 H   0  0  0  0  0  0  0  0  0  0  0  0
   -8.8252   -1.2913  -27.2500 H   0  0  0  0  0  0  0  0  0  0  0  0
  -10.0850   -2.0371  -26.1149 H   0  0  0  0  0  0  0  0  0  0  0  0
  1  2  2  0
  2  3  1  0
  3  4  1  0
  4  5  1  0
  5  6  2  0
  5  7  1  0
  7  8  1  0
  8  9  2  0
  9 10  1  0
 10 11  2  0
 11 12  1  0
 12 13  2  0
 13 14  1  0
 14 15  2  0
 15 16  1  0
 16 17  2  0
 16 18  1  0
 15 19  1  0
 14 20  1  0
 13 21  1  0
 11 22  1  0
  9 23  1  0
  7 24  1  0
  4 25  1  0
 25 26  2  0
 26 27  1  0
 27 28  2  0
 28 29  1  0
 29 30  1  0
 29 31  2  0
 31 32  1  0
 28 33  1  0
 27 34  1  0
 26 35  1  0
  3 36  1  0
  3 37  1  0
  2 38  1  0
 38 39  2  0
 38 40  1  0
 40 41  1  0
 41 42  1  0
 42 43  1  0
 42 44  1  0
 42 45  1  0
 41 46  1  0
 41 47  1  0
 40 48  1  0
  1 49  1  0
  1 50  1  0
 17  8  1  0
 31 25  1  0
 17 12  1  0
M  END
>  <cnnaffinities>  (49) 
[5.67358]

>  <score>  (49) 
5.67358

>  <index>  (49) 
51

>  <Smiles>  (49) 
C(=C(C(N(C(=O)N(c1c(nc(c2c(c(c(c(c12)[H])[H])[H])[H])[H])[H])[H])c1c(c(c(c(Cl)c1[H])[H])[H])[H])([H])[H])C(=O)N(C(C([H])([H])[H])([H])[H])[H])([H])[H]

>  <h>  (49) 
<NA>

>  <Training>  (49) 
True

>  <Success>  (49) 
True

>  <enamine_searched>  (49) 
False

>  <enamine_id>  (49) 
nan

$$$$

     RDKit          3D

 57 60  0  0  0  0  0  0  0  0999 V2000
   -5.5871    3.2683  -28.0818 C   0  0  0  0  0  0  0  0  0  0  0  0
   -4.9125    1.9126  -27.8185 C   0  0  0  0  0  0  0  0  0  0  0  0
   -5.5655    1.1558  -26.6585 C   0  0  0  0  0  0  0  0  0  0  0  0
   -5.1776    1.2973  -25.5141 O   0  0  0  0  0  0  0  0  0  0  0  0
   -6.6259    0.3373  -26.9890 N   0  0  0  0  0  0  0  0  0  0  0  0
   -7.2579   -0.5439  -26.0737 C   0  0  0  0  0  0  0  0  0  0  0  0
   -8.6337   -0.7779  -26.1649 C   0  0  0  0  0  0  0  0  0  0  0  0
   -9.2423   -1.6415  -25.2627 C   0  0  0  0  0  0  0  0  0  0  0  0
   -8.5101   -2.2873  -24.2761 C   0  0  0  0  0  0  0  0  0  0  0  0
   -7.1347   -2.0619  -24.1962 C   0  0  0  0  0  0  0  0  0  0  0  0
   -6.3496   -2.7118  -23.1966 N   0  0  0  0  0  0  0  0  0  0  0  0
   -5.3669   -3.7082  -23.6330 C   0  0  0  0  0  0  0  0  0  0  0  0
   -5.9791   -5.0367  -24.0340 C   0  0  0  0  0  0  0  0  0  0  0  0
   -6.5183   -5.1886  -25.3112 C   0  0  0  0  0  0  0  0  0  0  0  0
   -7.1574   -6.3693  -25.6628 C   0  0  0  0  0  0  0  0  0  0  0  0
   -7.2700   -7.4010  -24.7418 C   0  0  0  0  0  0  0  0  0  0  0  0
   -6.6712   -7.2934  -23.4879 C   0  0  0  0  0  0  0  0  0  0  0  0
   -6.0309   -6.1070  -23.1359 C   0  0  0  0  0  0  0  0  0  0  0  0
   -5.6038   -5.9866  -22.1402 H   0  0  0  0  0  0  0  0  0  0  0  0
   -6.7118   -8.1175  -22.7757 H   0  0  0  0  0  0  0  0  0  0  0  0
   -7.8679   -8.2575  -25.0374 H   0  0  0  0  0  0  0  0  0  0  0  0
   -7.5996   -6.5000  -26.6472 H   0  0  0  0  0  0  0  0  0  0  0  0
   -6.4805   -4.3643  -26.0225 H   0  0  0  0  0  0  0  0  0  0  0  0
   -4.8343   -3.2797  -24.4888 H   0  0  0  0  0  0  0  0  0  0  0  0
   -4.6691   -3.8498  -22.8059 H   0  0  0  0  0  0  0  0  0  0  0  0
   -6.6572   -2.6916  -21.8467 C   0  0  0  0  0  0  0  0  0  0  0  0
   -6.3212   -3.6086  -21.1155 O   0  0  0  0  0  0  0  0  0  0  0  0
   -7.3818   -1.4661  -21.2737 C   0  0  0  0  0  0  0  0  0  0  0  0
   -6.5725   -0.8205  -20.1744 C   0  0  0  0  0  0  0  0  0  0  0  0
   -6.8734   -1.0437  -18.8570 C   0  0  0  0  0  0  0  0  0  0  0  0
   -6.1905   -0.5365  -17.7957 N   0  0  0  0  0  0  0  0  0  0  0  0
   -5.1575    0.2218  -18.0651 C   0  0  0  0  0  0  0  0  0  0  0  0
   -4.7202    0.5343  -19.3818 C   0  0  0  0  0  0  0  0  0  0  0  0
   -3.5891    1.3542  -19.6250 C   0  0  0  0  0  0  0  0  0  0  0  0
   -3.1930    1.6313  -20.9031 C   0  0  0  0  0  0  0  0  0  0  0  0
   -3.9100    1.0974  -22.0011 C   0  0  0  0  0  0  0  0  0  0  0  0
   -5.0081    0.3002  -21.7946 C   0  0  0  0  0  0  0  0  0  0  0  0
   -5.4444   -0.0012  -20.4742 C   0  0  0  0  0  0  0  0  0  0  0  0
   -5.5447   -0.1028  -22.6550 H   0  0  0  0  0  0  0  0  0  0  0  0
   -3.6049    1.3267  -23.0171 H   0  0  0  0  0  0  0  0  0  0  0  0
   -2.3348    2.2737  -21.0825 H   0  0  0  0  0  0  0  0  0  0  0  0
   -3.0614    1.7706  -18.7700 H   0  0  0  0  0  0  0  0  0  0  0  0
   -4.6055    0.6289  -17.2153 H   0  0  0  0  0  0  0  0  0  0  0  0
   -7.7231   -1.6706  -18.5839 H   0  0  0  0  0  0  0  0  0  0  0  0
   -8.3290   -1.8242  -20.8501 H   0  0  0  0  0  0  0  0  0  0  0  0
   -7.6220   -0.7537  -22.0695 H   0  0  0  0  0  0  0  0  0  0  0  0
   -6.5083   -1.2153  -25.1074 C   0  0  0  0  0  0  0  0  0  0  0  0
   -5.4339   -1.0673  -25.0595 H   0  0  0  0  0  0  0  0  0  0  0  0
   -8.9937   -2.9698  -23.5801 H   0  0  0  0  0  0  0  0  0  0  0  0
  -10.3114   -1.8067  -25.3243 H   0  0  0  0  0  0  0  0  0  0  0  0
   -9.2294   -0.2738  -26.9226 H   0  0  0  0  0  0  0  0  0  0  0  0
   -7.0531    0.4366  -27.8998 H   0  0  0  0  0  0  0  0  0  0  0  0
   -3.8764    2.0762  -27.5085 H   0  0  0  0  0  0  0  0  0  0  0  0
   -4.8870    1.3132  -28.7400 H   0  0  0  0  0  0  0  0  0  0  0  0
   -6.6317    3.1352  -28.3876 H   0  0  0  0  0  0  0  0  0  0  0  0
   -5.0690    3.8226  -28.8767 H   0  0  0  0  0  0  0  0  0  0  0  0
   -5.5698    3.8889  -27.1787 H   0  0  0  0  0  0  0  0  0  0  0  0
  1  2  1  0
  2  3  1  0
  3  4  2  0
  3  5  1  0
  5  6  1  0
  6  7  2  0
  7  8  1  0
  8  9  2  0
  9 10  1  0
 10 11  1  0
 11 12  1  0
 12 13  1  0
 13 14  2  0
 14 15  1  0
 15 16  2  0
 16 17  1  0
 17 18  2  0
 18 19  1  0
 17 20  1  0
 16 21  1  0
 15 22  1  0
 14 23  1  0
 12 24  1  0
 12 25  1  0
 11 26  1  0
 26 27  2  0
 26 28  1  0
 28 29  1  0
 29 30  2  0
 30 31  1  0
 31 32  2  0
 32 33  1  0
 33 34  2  0
 34 35  1  0
 35 36  2  0
 36 37  1  0
 37 38  2  0
 37 39  1  0
 36 40  1  0
 35 41  1  0
 34 42  1  0
 32 43  1  0
 30 44  1  0
 28 45  1  0
 28 46  1  0
 10 47  2  0
 47 48  1  0
  9 49  1  0
  8 50  1  0
  7 51  1  0
  5 52  1  0
  2 53  1  0
  2 54  1  0
  1 55  1  0
  1 56  1  0
  1 57  1  0
 47  6  1  0
 18 13  1  0
 38 29  1  0
 38 33  1  0
M  END
>  <cnnaffinities>  (50) 
[5.76744, 5.76712, 5.76975, 5.63124, 5.76609, 5.60577, 5.60572, 5.49759]

>  <score>  (50) 
5.76744

>  <index>  (50) 
52

>  <Smiles>  (50) 
C(C(C(=O)N(c1c(c(c(c(N(C(c2c(c(c(c(c2[H])[H])[H])[H])[H])([H])[H])C(=O)C(c2c(nc(c3c(c(c(c(c23)[H])[H])[H])[H])[H])[H])([H])[H])c1[H])[H])[H])[H])[H])([H])[H])([H])([H])[H]

>  <h>  (50) 
<NA>

>  <Training>  (50) 
True

>  <Success>  (50) 
True

>  <enamine_searched>  (50) 
False

>  <enamine_id>  (50) 
nan

$$$$

     RDKit          3D

 59 63  0  0  0  0  0  0  0  0999 V2000
   -7.9678    2.2104  -30.0693 C   0  0  0  0  0  0  0  0  0  0  0  0
   -9.1438    1.5982  -29.3098 C   0  0  0  0  0  0  0  0  0  0  0  0
   -9.0830    1.7727  -27.8586 N   0  0  0  0  0  0  0  0  0  0  0  0
   -8.4143    0.8979  -27.0512 C   0  0  0  0  0  0  0  0  0  0  0  0
   -7.7421   -0.0273  -27.4800 O   0  0  0  0  0  0  0  0  0  0  0  0
   -8.5473    1.1749  -25.5415 C   0  0  0  0  0  0  0  0  0  0  0  0
   -9.2915    0.1562  -24.8289 N   0  0  0  0  0  0  0  0  0  0  0  0
   -8.6824   -1.1262  -24.5256 C   0  0  0  0  0  0  0  0  0  0  0  0
   -8.9337   -1.5592  -23.0558 C   0  0  2  0  0  0  0  0  0  0  0  0
   -8.1462   -0.6168  -22.1117 C   0  0  0  0  0  0  0  0  0  0  0  0
   -8.1503    0.5943  -22.1437 O   0  0  0  0  0  0  0  0  0  0  0  0
   -7.3917   -1.3731  -21.2355 N   0  0  0  0  0  0  0  0  0  0  0  0
   -6.5974   -0.8158  -20.1975 C   0  0  0  0  0  0  0  0  0  0  0  0
   -6.8953   -1.0740  -18.8819 C   0  0  0  0  0  0  0  0  0  0  0  0
   -6.2209   -0.5669  -17.8192 N   0  0  0  0  0  0  0  0  0  0  0  0
   -5.1914    0.2057  -18.0703 C   0  0  0  0  0  0  0  0  0  0  0  0
   -4.7359    0.5185  -19.3819 C   0  0  0  0  0  0  0  0  0  0  0  0
   -3.6003    1.3458  -19.5989 C   0  0  0  0  0  0  0  0  0  0  0  0
   -3.1707    1.6124  -20.8702 C   0  0  0  0  0  0  0  0  0  0  0  0
   -3.8444    1.0512  -21.9780 C   0  0  0  0  0  0  0  0  0  0  0  0
   -4.9408    0.2470  -21.7911 C   0  0  0  0  0  0  0  0  0  0  0  0
   -5.4380   -0.0177  -20.4849 C   0  0  0  0  0  0  0  0  0  0  0  0
   -5.4511   -0.1895  -22.6422 H   0  0  0  0  0  0  0  0  0  0  0  0
   -3.4976    1.2676  -22.9842 H   0  0  0  0  0  0  0  0  0  0  0  0
   -2.3145    2.2614  -21.0361 H   0  0  0  0  0  0  0  0  0  0  0  0
   -3.0973    1.7718  -18.7340 H   0  0  0  0  0  0  0  0  0  0  0  0
   -4.6539    0.6157  -17.2143 H   0  0  0  0  0  0  0  0  0  0  0  0
   -7.7471   -1.7026  -18.6261 H   0  0  0  0  0  0  0  0  0  0  0  0
   -7.6453   -2.7943  -21.3340 C   0  0  0  0  0  0  0  0  0  0  0  0
   -8.3579   -2.9743  -22.6978 C   0  0  2  0  0  0  0  0  0  0  0  0
   -7.4437   -3.6205  -23.7484 C   0  0  0  0  0  0  0  0  0  0  0  0
   -7.9704   -3.7727  -24.6969 H   0  0  0  0  0  0  0  0  0  0  0  0
   -6.5515   -3.0174  -23.9448 H   0  0  0  0  0  0  0  0  0  0  0  0
   -7.1145   -4.6097  -23.4081 H   0  0  0  0  0  0  0  0  0  0  0  0
   -9.1853   -3.6782  -22.5788 H   0  0  0  0  0  0  0  0  0  0  0  0
   -6.6999   -3.3471  -21.2864 H   0  0  0  0  0  0  0  0  0  0  0  0
   -8.2661   -3.1394  -20.4940 H   0  0  0  0  0  0  0  0  0  0  0  0
  -10.4474   -1.4692  -22.8403 C   0  0  0  0  0  0  0  0  0  0  0  0
  -11.0836   -2.2960  -21.9026 C   0  0  0  0  0  0  0  0  0  0  0  0
  -12.4640   -2.3302  -21.8347 C   0  0  0  0  0  0  0  0  0  0  0  0
  -13.2472   -3.4468  -20.7545 Cl  0  0  0  0  0  0  0  0  0  0  0  0
  -13.2479   -1.5060  -22.6321 C   0  0  0  0  0  0  0  0  0  0  0  0
  -12.6308   -0.6103  -23.4870 C   0  0  0  0  0  0  0  0  0  0  0  0
  -11.2364   -0.5819  -23.5887 C   0  0  0  0  0  0  0  0  0  0  0  0
  -10.6065    0.3941  -24.5428 C   0  0  0  0  0  0  0  0  0  0  0  0
  -11.2221    1.3250  -25.0417 O   0  0  0  0  0  0  0  0  0  0  0  0
  -13.2142    0.0641  -24.1060 H   0  0  0  0  0  0  0  0  0  0  0  0
  -14.3262   -1.5940  -22.5580 H   0  0  0  0  0  0  0  0  0  0  0  0
  -10.5165   -2.9161  -21.2189 H   0  0  0  0  0  0  0  0  0  0  0  0
   -7.6132   -1.0411  -24.7220 H   0  0  0  0  0  0  0  0  0  0  0  0
   -9.1084   -1.8966  -25.1841 H   0  0  0  0  0  0  0  0  0  0  0  0
   -7.5394    1.2122  -25.1104 H   0  0  0  0  0  0  0  0  0  0  0  0
   -9.0426    2.1302  -25.3477 H   0  0  0  0  0  0  0  0  0  0  0  0
   -9.7666    2.3918  -27.4365 H   0  0  0  0  0  0  0  0  0  0  0  0
   -9.1989    0.5265  -29.5335 H   0  0  0  0  0  0  0  0  0  0  0  0
  -10.0777    2.0610  -29.6466 H   0  0  0  0  0  0  0  0  0  0  0  0
   -8.1013    2.0274  -31.1441 H   0  0  0  0  0  0  0  0  0  0  0  0
   -7.0216    1.7676  -29.7405 H   0  0  0  0  0  0  0  0  0  0  0  0
   -7.9144    3.2914  -29.9078 H   0  0  0  0  0  0  0  0  0  0  0  0
  1  2  1  0
  2  3  1  0
  3  4  1  0
  4  5  2  0
  4  6  1  0
  6  7  1  0
  7  8  1  0
  9  8  1  6
  9 10  1  0
 10 11  2  0
 10 12  1  0
 12 13  1  0
 13 14  2  0
 14 15  1  0
 15 16  2  0
 16 17  1  0
 17 18  2  0
 18 19  1  0
 19 20  2  0
 20 21  1  0
 21 22  2  0
 21 23  1  0
 20 24  1  0
 19 25  1  0
 18 26  1  0
 16 27  1  0
 14 28  1  0
 12 29  1  0
 29 30  1  0
 30 31  1  0
 31 32  1  0
 31 33  1  0
 31 34  1  0
 30 35  1  1
 29 36  1  0
 29 37  1  0
  9 38  1  0
 38 39  2  0
 39 40  1  0
 40 41  1  0
 40 42  2  0
 42 43  1  0
 43 44  2  0
 44 45  1  0
 45 46  2  0
 43 47  1  0
 42 48  1  0
 39 49  1  0
  8 50  1  0
  8 51  1  0
  6 52  1  0
  6 53  1  0
  3 54  1  0
  2 55  1  0
  2 56  1  0
  1 57  1  0
  1 58  1  0
  1 59  1  0
 45  7  1  0
 30  9  1  0
 44 38  1  0
 22 13  1  0
 22 17  1  0
M  END
>  <cnnaffinities>  (51) 
[5.8015, 6.38972]

>  <score>  (51) 
5.8015

>  <index>  (51) 
53

>  <Smiles>  (51) 
C(C(N(C(=O)C(N1C([C@@]2(C(=O)N(c3c(nc(c4c(c(c(c(c34)[H])[H])[H])[H])[H])[H])C([C@@]2(C([H])([H])[H])[H])([H])[H])c2c(c(Cl)c(c(c2C1=O)[H])[H])[H])([H])[H])([H])[H])[H])([H])[H])([H])([H])[H]

>  <h>  (51) 
<NA>

>  <Training>  (51) 
True

>  <Success>  (51) 
True

>  <enamine_searched>  (51) 
False

>  <enamine_id>  (51) 
nan

$$$$

     RDKit          3D

 40 43  0  0  0  0  0  0  0  0999 V2000
  -10.2837   -2.6048  -22.7798 C   0  0  0  0  0  0  0  0  0  0  0  0
   -8.9416   -2.1797  -22.4525 N   0  0  0  0  0  0  0  0  0  0  0  0
   -7.7490   -2.7017  -22.8670 C   0  0  0  0  0  0  0  0  0  0  0  0
   -7.6132   -3.5835  -24.0535 C   0  0  0  0  0  0  0  0  0  0  0  0
   -7.7602   -5.0446  -23.6744 C   0  0  0  0  0  0  0  0  0  0  0  0
   -8.8207   -5.8210  -24.1401 C   0  0  0  0  0  0  0  0  0  0  0  0
   -8.8530   -7.1890  -23.8776 C   0  0  0  0  0  0  0  0  0  0  0  0
   -7.8341   -7.7730  -23.1278 C   0  0  0  0  0  0  0  0  0  0  0  0
   -6.8374   -6.9856  -22.5578 C   0  0  0  0  0  0  0  0  0  0  0  0
   -6.8007   -5.6202  -22.8402 C   0  0  0  0  0  0  0  0  0  0  0  0
   -6.0138   -4.9880  -22.4378 H   0  0  0  0  0  0  0  0  0  0  0  0
   -6.0956   -7.4283  -21.8936 H   0  0  0  0  0  0  0  0  0  0  0  0
   -7.8135   -8.8473  -22.9707 H   0  0  0  0  0  0  0  0  0  0  0  0
   -9.6657   -7.7921  -24.2899 H   0  0  0  0  0  0  0  0  0  0  0  0
   -9.6399   -5.3469  -24.6859 H   0  0  0  0  0  0  0  0  0  0  0  0
   -8.3501   -3.3019  -24.8158 H   0  0  0  0  0  0  0  0  0  0  0  0
   -6.6253   -3.3741  -24.4864 H   0  0  0  0  0  0  0  0  0  0  0  0
   -6.7579   -2.2999  -22.1300 N   0  0  0  0  0  0  0  0  0  0  0  0
   -7.3146   -1.3968  -21.2718 N   0  0  0  0  0  0  0  0  0  0  0  0
   -6.5848   -0.8242  -20.2178 C   0  0  0  0  0  0  0  0  0  0  0  0
   -6.9378   -1.0559  -18.9098 C   0  0  0  0  0  0  0  0  0  0  0  0
   -6.2542   -0.5642  -17.8515 N   0  0  0  0  0  0  0  0  0  0  0  0
   -5.2059    0.1796  -18.1112 C   0  0  0  0  0  0  0  0  0  0  0  0
   -4.7554    0.4991  -19.4198 C   0  0  0  0  0  0  0  0  0  0  0  0
   -3.6292    1.3279  -19.6365 C   0  0  0  0  0  0  0  0  0  0  0  0
   -3.2406    1.6427  -20.9080 C   0  0  0  0  0  0  0  0  0  0  0  0
   -3.9521    1.1433  -22.0221 C   0  0  0  0  0  0  0  0  0  0  0  0
   -5.0394    0.3287  -21.8430 C   0  0  0  0  0  0  0  0  0  0  0  0
   -5.4617   -0.0152  -20.5267 C   0  0  0  0  0  0  0  0  0  0  0  0
   -5.5774   -0.0703  -22.6969 H   0  0  0  0  0  0  0  0  0  0  0  0
   -3.6468    1.4220  -23.0265 H   0  0  0  0  0  0  0  0  0  0  0  0
   -2.3961    2.3033  -21.0717 H   0  0  0  0  0  0  0  0  0  0  0  0
   -3.1128    1.7248  -18.7689 H   0  0  0  0  0  0  0  0  0  0  0  0
   -4.6566    0.5863  -17.2613 H   0  0  0  0  0  0  0  0  0  0  0  0
   -7.7978   -1.6760  -18.6701 H   0  0  0  0  0  0  0  0  0  0  0  0
   -8.6610   -1.2086  -21.5005 C   0  0  0  0  0  0  0  0  0  0  0  0
   -9.3942   -0.3779  -21.0167 O   0  0  0  0  0  0  0  0  0  0  0  0
  -10.5011   -3.5959  -22.3680 H   0  0  0  0  0  0  0  0  0  0  0  0
  -10.9756   -1.8831  -22.3473 H   0  0  0  0  0  0  0  0  0  0  0  0
  -10.4093   -2.6189  -23.8637 H   0  0  0  0  0  0  0  0  0  0  0  0
  1  2  1  0
  2  3  1  0
  3  4  1  0
  4  5  1  0
  5  6  2  0
  6  7  1  0
  7  8  2  0
  8  9  1  0
  9 10  2  0
 10 11  1  0
  9 12  1  0
  8 13  1  0
  7 14  1  0
  6 15  1  0
  4 16  1  0
  4 17  1  0
  3 18  2  0
 18 19  1  0
 19 20  1  0
 20 21  2  0
 21 22  1  0
 22 23  2  0
 23 24  1  0
 24 25  2  0
 25 26  1  0
 26 27  2  0
 27 28  1  0
 28 29  2  0
 28 30  1  0
 27 31  1  0
 26 32  1  0
 25 33  1  0
 23 34  1  0
 21 35  1  0
 19 36  1  0
 36 37  2  0
  1 38  1  0
  1 39  1  0
  1 40  1  0
 36  2  1  0
 10  5  1  0
 29 20  1  0
 29 24  1  0
M  END
>  <cnnaffinities>  (52) 
[4.57269, 4.57249]

>  <score>  (52) 
4.57269

>  <index>  (52) 
54

>  <Smiles>  (52) 
C(n1c(C(c2c(c(c(c(c2[H])[H])[H])[H])[H])([H])[H])nn(c2c(nc(c3c(c(c(c(c23)[H])[H])[H])[H])[H])[H])c1=O)([H])([H])[H]

>  <h>  (52) 
<NA>

>  <Training>  (52) 
True

>  <Success>  (52) 
True

>  <enamine_searched>  (52) 
False

>  <enamine_id>  (52) 
nan

$$$$

     RDKit          3D

 61 66  0  0  0  0  0  0  0  0999 V2000
   -7.0093   -5.4612  -25.0397 C   0  0  0  0  0  0  0  0  0  0  0  0
   -7.3458   -4.7962  -23.8482 O   0  0  0  0  0  0  0  0  0  0  0  0
   -7.9925   -3.5711  -24.0832 C   0  0  0  0  0  0  0  0  0  0  0  0
   -8.2952   -2.9138  -22.7400 C   0  0  1  0  0  0  0  0  0  0  0  0
   -7.0143   -2.5509  -21.9644 C   0  0  0  0  0  0  0  0  0  0  0  0
   -7.3962   -1.3745  -21.2080 N   0  0  0  0  0  0  0  0  0  0  0  0
   -6.6061   -0.8083  -20.1798 C   0  0  0  0  0  0  0  0  0  0  0  0
   -6.9247   -1.0396  -18.8664 C   0  0  0  0  0  0  0  0  0  0  0  0
   -6.2270   -0.5473  -17.8138 N   0  0  0  0  0  0  0  0  0  0  0  0
   -5.1893    0.2094  -18.0841 C   0  0  0  0  0  0  0  0  0  0  0  0
   -4.7518    0.5298  -19.4011 C   0  0  0  0  0  0  0  0  0  0  0  0
   -3.6297    1.3666  -19.6398 C   0  0  0  0  0  0  0  0  0  0  0  0
   -3.2438    1.6635  -20.9180 C   0  0  0  0  0  0  0  0  0  0  0  0
   -3.9455    1.1255  -22.0178 C   0  0  0  0  0  0  0  0  0  0  0  0
   -5.0233    0.2953  -21.8119 C   0  0  0  0  0  0  0  0  0  0  0  0
   -5.4655   -0.0089  -20.4943 C   0  0  0  0  0  0  0  0  0  0  0  0
   -5.5827   -0.0750  -22.6655 H   0  0  0  0  0  0  0  0  0  0  0  0
   -3.6306    1.3858  -23.0259 H   0  0  0  0  0  0  0  0  0  0  0  0
   -2.3916    2.3130  -21.0935 H   0  0  0  0  0  0  0  0  0  0  0  0
   -3.0959    1.7676  -18.7846 H   0  0  0  0  0  0  0  0  0  0  0  0
   -4.6236    0.6073  -17.2398 H   0  0  0  0  0  0  0  0  0  0  0  0
   -7.7878   -1.6558  -18.6238 H   0  0  0  0  0  0  0  0  0  0  0  0
   -8.5969   -0.8145  -21.5802 C   0  0  0  0  0  0  0  0  0  0  0  0
   -9.1150    0.1424  -21.0429 O   0  0  0  0  0  0  0  0  0  0  0  0
   -9.1356   -1.6066  -22.7937 C   0  0  1  0  0  0  0  0  0  0  0  0
   -8.8538   -0.8252  -24.0999 C   0  0  0  0  0  0  0  0  0  0  0  0
   -9.6660    0.3677  -24.2090 N   0  0  0  0  0  0  0  0  0  0  0  0
   -9.0366    1.5962  -24.6600 C   0  0  0  0  0  0  0  0  0  0  0  0
   -8.2214    2.2708  -23.5947 C   0  0  0  0  0  0  0  0  0  0  0  0
   -6.8804    2.3671  -23.4298 C   0  0  0  0  0  0  0  0  0  0  0  0
   -6.6517    3.1131  -22.2991 N   0  0  0  0  0  4  0  0  0  0  0  0
   -7.8194    3.4902  -21.7711 C   0  0  0  0  0  0  0  0  0  0  0  0
   -8.7946    2.9799  -22.5464 N   0  0  0  0  0  0  0  0  0  0  0  0
   -9.7694    2.9328  -22.2586 H   0  0  0  0  0  0  0  0  0  0  0  0
   -7.9444    4.1558  -20.9253 H   0  0  0  0  0  0  0  0  0  0  0  0
   -5.7409    3.1516  -21.8630 H   0  0  0  0  0  0  0  0  0  0  0  0
   -6.0447    1.9619  -23.9822 H   0  0  0  0  0  0  0  0  0  0  0  0
   -9.8470    2.2413  -25.0164 H   0  0  0  0  0  0  0  0  0  0  0  0
   -8.4064    1.3557  -25.5230 H   0  0  0  0  0  0  0  0  0  0  0  0
  -11.0165    0.3219  -24.0329 C   0  0  0  0  0  0  0  0  0  0  0  0
  -11.7686    1.2131  -24.4061 O   0  0  0  0  0  0  0  0  0  0  0  0
  -11.5182   -0.8872  -23.3100 C   0  0  0  0  0  0  0  0  0  0  0  0
  -12.8989   -1.0252  -23.1956 C   0  0  0  0  0  0  0  0  0  0  0  0
  -13.4362   -1.9490  -22.3284 C   0  0  0  0  0  0  0  0  0  0  0  0
  -12.5545   -2.7373  -21.5917 C   0  0  0  0  0  0  0  0  0  0  0  0
  -13.2205   -3.7523  -20.3597 Cl  0  0  0  0  0  0  0  0  0  0  0  0
  -11.1853   -2.7001  -21.7883 C   0  0  0  0  0  0  0  0  0  0  0  0
  -10.6367   -1.7711  -22.6746 C   0  0  0  0  0  0  0  0  0  0  0  0
  -10.5519   -3.3872  -21.2386 H   0  0  0  0  0  0  0  0  0  0  0  0
  -14.5076   -2.0475  -22.1813 H   0  0  0  0  0  0  0  0  0  0  0  0
  -13.5236   -0.3453  -23.7612 H   0  0  0  0  0  0  0  0  0  0  0  0
   -9.0627   -1.4859  -24.9509 H   0  0  0  0  0  0  0  0  0  0  0  0
   -7.8019   -0.5275  -24.1446 H   0  0  0  0  0  0  0  0  0  0  0  0
   -6.1736   -2.3414  -22.6417 H   0  0  0  0  0  0  0  0  0  0  0  0
   -6.7008   -3.3526  -21.2916 H   0  0  0  0  0  0  0  0  0  0  0  0
   -8.8460   -3.6497  -22.1530 H   0  0  0  0  0  0  0  0  0  0  0  0
   -8.9245   -3.7320  -24.6528 H   0  0  0  0  0  0  0  0  0  0  0  0
   -7.3458   -2.9114  -24.6894 H   0  0  0  0  0  0  0  0  0  0  0  0
   -6.5429   -6.4108  -24.7682 H   0  0  0  0  0  0  0  0  0  0  0  0
   -7.8959   -5.6724  -25.6592 H   0  0  0  0  0  0  0  0  0  0  0  0
   -6.2950   -4.8820  -25.6466 H   0  0  0  0  0  0  0  0  0  0  0  0
  1  2  1  0
  2  3  1  0
  3  4  1  0
  4  5  1  0
  5  6  1  0
  6  7  1  0
  7  8  2  0
  8  9  1  0
  9 10  2  0
 10 11  1  0
 11 12  2  0
 12 13  1  0
 13 14  2  0
 14 15  1  0
 15 16  2  0
 15 17  1  0
 14 18  1  0
 13 19  1  0
 12 20  1  0
 10 21  1  0
  8 22  1  0
  6 23  1  0
 23 24  2  0
 23 25  1  0
 25 26  1  6
 26 27  1  0
 27 28  1  0
 28 29  1  0
 29 30  2  0
 30 31  1  0
 31 32  2  0
 32 33  1  0
 33 34  1  0
 32 35  1  0
 31 36  1  0
 30 37  1  0
 28 38  1  0
 28 39  1  0
 27 40  1  0
 40 41  2  0
 40 42  1  0
 42 43  2  0
 43 44  1  0
 44 45  2  0
 45 46  1  0
 45 47  1  0
 47 48  2  0
 47 49  1  0
 44 50  1  0
 43 51  1  0
 26 52  1  0
 26 53  1  0
  5 54  1  0
  5 55  1  0
  4 56  1  1
  3 57  1  0
  3 58  1  0
  1 59  1  0
  1 60  1  0
  1 61  1  0
 25  4  1  0
 33 29  1  0
 48 42  1  0
 16  7  1  0
 48 25  1  0
 16 11  1  0
M  CHG  1  31   1
M  END
>  <cnnaffinities>  (53) 
[6.58485]

>  <score>  (53) 
6.58485

>  <index>  (53) 
55

>  <Smiles>  (53) 
C(OC([C@]1(C(N(c2c(nc(c3c(c(c(c(c23)[H])[H])[H])[H])[H])[H])C(=O)[C@]21C(N(C(c1c([n+](c(n1[H])[H])[H])[H])([H])[H])C(=O)c1c(c(c(Cl)c(c21)[H])[H])[H])([H])[H])([H])[H])[H])([H])[H])([H])([H])[H]

>  <h>  (53) 
<NA>

>  <Training>  (53) 
True

>  <Success>  (53) 
True

>  <enamine_searched>  (53) 
False

>  <enamine_id>  (53) 
nan

$$$$

     RDKit          3D

 57 62  0  0  0  0  0  0  0  0999 V2000
  -10.3230   -0.9779  -23.4733 C   0  0  0  0  0  0  0  0  0  0  0  0
   -8.9369   -1.4267  -23.0370 C   0  0  1  0  0  0  0  0  0  0  0  0
   -8.3646   -0.5189  -21.9394 C   0  0  0  0  0  0  0  0  0  0  0  0
   -7.3885   -1.3651  -21.2740 N   0  0  0  0  0  0  0  0  0  0  0  0
   -6.5863   -0.8895  -20.2098 C   0  0  0  0  0  0  0  0  0  0  0  0
   -6.9001   -1.1621  -18.9021 C   0  0  0  0  0  0  0  0  0  0  0  0
   -6.2567   -0.6178  -17.8372 N   0  0  0  0  0  0  0  0  0  0  0  0
   -5.2492    0.1853  -18.0828 C   0  0  0  0  0  0  0  0  0  0  0  0
   -4.7835    0.5035  -19.3897 C   0  0  0  0  0  0  0  0  0  0  0  0
   -3.6630    1.3453  -19.6087 C   0  0  0  0  0  0  0  0  0  0  0  0
   -3.2422    1.6196  -20.8805 C   0  0  0  0  0  0  0  0  0  0  0  0
   -3.9207    1.0678  -21.9912 C   0  0  0  0  0  0  0  0  0  0  0  0
   -5.0118    0.2547  -21.8054 C   0  0  0  0  0  0  0  0  0  0  0  0
   -5.4696   -0.0437  -20.4954 C   0  0  0  0  0  0  0  0  0  0  0  0
   -5.5323   -0.1747  -22.6557 H   0  0  0  0  0  0  0  0  0  0  0  0
   -3.5813    1.2979  -22.9967 H   0  0  0  0  0  0  0  0  0  0  0  0
   -2.3887    2.2714  -21.0465 H   0  0  0  0  0  0  0  0  0  0  0  0
   -3.1633    1.7760  -18.7448 H   0  0  0  0  0  0  0  0  0  0  0  0
   -4.7371    0.6244  -17.2246 H   0  0  0  0  0  0  0  0  0  0  0  0
   -7.7158   -1.8400  -18.6585 H   0  0  0  0  0  0  0  0  0  0  0  0
   -7.6971   -2.7016  -21.3988 C   0  0  0  0  0  0  0  0  0  0  0  0
   -7.1602   -3.5883  -20.7617 O   0  0  0  0  0  0  0  0  0  0  0  0
   -8.8144   -2.8780  -22.4417 C   0  0  1  0  0  0  0  0  0  0  0  0
  -10.0512   -3.3809  -21.6628 C   0  0  0  0  0  0  0  0  0  0  0  0
  -11.1104   -3.9013  -22.5129 N   0  0  0  0  0  0  0  0  0  0  0  0
  -12.4675   -3.9075  -21.9976 C   0  0  0  0  0  0  0  0  0  0  0  0
  -13.3408   -2.7990  -22.4857 C   0  0  0  0  0  0  0  0  0  0  0  0
  -13.2605   -2.5068  -23.7881 N   0  0  0  0  0  0  0  0  0  0  0  0
  -14.0385   -1.5166  -24.2043 C   0  0  0  0  0  0  0  0  0  0  0  0
  -14.8885   -0.8519  -23.3379 C   0  0  0  0  0  0  0  0  0  0  0  0
  -14.9315   -1.2802  -22.0208 C   0  0  0  0  0  0  0  0  0  0  0  0
  -14.1762   -2.2817  -21.5847 N   0  0  0  0  0  0  0  0  0  0  0  0
  -15.6560   -0.8582  -21.3209 H   0  0  0  0  0  0  0  0  0  0  0  0
  -15.5199   -0.0596  -23.6840 H   0  0  0  0  0  0  0  0  0  0  0  0
  -13.9606   -1.2503  -25.2615 H   0  0  0  0  0  0  0  0  0  0  0  0
  -12.9526   -4.7954  -22.4010 H   0  0  0  0  0  0  0  0  0  0  0  0
  -12.4789   -3.9209  -20.9015 H   0  0  0  0  0  0  0  0  0  0  0  0
  -10.8582   -4.6781  -23.6134 C   0  0  0  0  0  0  0  0  0  0  0  0
  -11.7539   -5.2166  -24.2482 O   0  0  0  0  0  0  0  0  0  0  0  0
   -9.4246   -4.7799  -24.0079 C   0  0  0  0  0  0  0  0  0  0  0  0
   -9.0855   -5.7388  -24.9572 C   0  0  0  0  0  0  0  0  0  0  0  0
   -7.7871   -5.8651  -25.4054 C   0  0  0  0  0  0  0  0  0  0  0  0
   -6.8311   -4.9997  -24.8877 C   0  0  0  0  0  0  0  0  0  0  0  0
   -5.5688   -5.1105  -25.3324 F   0  0  0  0  0  0  0  0  0  0  0  0
   -7.1367   -4.0424  -23.9384 C   0  0  0  0  0  0  0  0  0  0  0  0
   -8.4530   -3.9252  -23.4745 C   0  0  0  0  0  0  0  0  0  0  0  0
   -6.3430   -3.4086  -23.5575 H   0  0  0  0  0  0  0  0  0  0  0  0
   -7.5090   -6.6036  -26.1488 H   0  0  0  0  0  0  0  0  0  0  0  0
   -9.8769   -6.3867  -25.3175 H   0  0  0  0  0  0  0  0  0  0  0  0
   -9.7135   -4.1629  -20.9678 H   0  0  0  0  0  0  0  0  0  0  0  0
  -10.4624   -2.5561  -21.0724 H   0  0  0  0  0  0  0  0  0  0  0  0
   -7.9016    0.3903  -22.3326 H   0  0  0  0  0  0  0  0  0  0  0  0
   -9.1561   -0.2044  -21.2381 H   0  0  0  0  0  0  0  0  0  0  0  0
   -8.2606   -1.3948  -23.9056 H   0  0  0  0  0  0  0  0  0  0  0  0
  -10.3036    0.0462  -23.8625 H   0  0  0  0  0  0  0  0  0  0  0  0
  -11.0044   -0.9901  -22.6173 H   0  0  0  0  0  0  0  0  0  0  0  0
  -10.7320   -1.6357  -24.2435 H   0  0  0  0  0  0  0  0  0  0  0  0
  1  2  1  0
  2  3  1  0
  3  4  1  0
  4  5  1  0
  5  6  2  0
  6  7  1  0
  7  8  2  0
  8  9  1  0
  9 10  2  0
 10 11  1  0
 11 12  2  0
 12 13  1  0
 13 14  2  0
 13 15  1  0
 12 16  1  0
 11 17  1  0
 10 18  1  0
  8 19  1  0
  6 20  1  0
  4 21  1  0
 21 22  2  0
 21 23  1  0
 23 24  1  1
 24 25  1  0
 25 26  1  0
 26 27  1  0
 27 28  2  0
 28 29  1  0
 29 30  2  0
 30 31  1  0
 31 32  2  0
 31 33  1  0
 30 34  1  0
 29 35  1  0
 26 36  1  0
 26 37  1  0
 25 38  1  0
 38 39  2  0
 38 40  1  0
 40 41  2  0
 41 42  1  0
 42 43  2  0
 43 44  1  0
 43 45  1  0
 45 46  2  0
 45 47  1  0
 42 48  1  0
 41 49  1  0
 24 50  1  0
 24 51  1  0
  3 52  1  0
  3 53  1  0
  2 54  1  6
  1 55  1  0
  1 56  1  0
  1 57  1  0
 23  2  1  0
 32 27  1  0
 46 40  1  0
 14  5  1  0
 46 23  1  0
 14  9  1  0
M  END
>  <cnnaffinities>  (54) 
[6.78041, 6.76643]

>  <score>  (54) 
6.78041

>  <index>  (54) 
56

>  <Smiles>  (54) 
C([C@]1(C(N(c2c(nc(c3c(c(c(c(c23)[H])[H])[H])[H])[H])[H])C(=O)[C@]21C(N(C(c1nc(c(c(n1)[H])[H])[H])([H])[H])C(=O)c1c(c(c(F)c(c21)[H])[H])[H])([H])[H])([H])[H])[H])([H])([H])[H]

>  <h>  (54) 
<NA>

>  <Training>  (54) 
True

>  <Success>  (54) 
True

>  <enamine_searched>  (54) 
False

>  <enamine_id>  (54) 
nan

$$$$

     RDKit          3D

 59 63  0  0  0  0  0  0  0  0999 V2000
  -14.5304   -1.2692  -23.6673 C   0  0  0  0  0  0  0  0  0  0  0  0
  -13.7690   -2.4365  -23.2759 N   0  0  0  0  0  0  0  0  0  0  0  0
  -13.4354   -2.5852  -21.9696 C   0  0  0  0  0  0  0  0  0  0  0  0
  -13.8454   -1.8245  -21.1044 O   0  0  0  0  0  0  0  0  0  0  0  0
  -12.5718   -3.7968  -21.6295 C   0  0  0  0  0  0  0  0  0  0  0  0
  -11.2237   -3.7795  -22.1855 N   0  0  0  0  0  0  0  0  0  0  0  0
  -10.0865   -3.3012  -21.3994 C   0  0  0  0  0  0  0  0  0  0  0  0
   -8.8476   -2.9527  -22.2735 C   0  0  2  0  0  0  0  0  0  0  0  0
   -7.6658   -2.7284  -21.3179 C   0  0  0  0  0  0  0  0  0  0  0  0
   -7.0827   -3.5785  -20.6712 O   0  0  0  0  0  0  0  0  0  0  0  0
   -7.3700   -1.3818  -21.2560 N   0  0  0  0  0  0  0  0  0  0  0  0
   -6.5818   -0.8645  -20.1979 C   0  0  0  0  0  0  0  0  0  0  0  0
   -6.9028   -1.1102  -18.8855 C   0  0  0  0  0  0  0  0  0  0  0  0
   -6.2466   -0.5743  -17.8258 N   0  0  0  0  0  0  0  0  0  0  0  0
   -5.2216    0.2005  -18.0893 C   0  0  0  0  0  0  0  0  0  0  0  0
   -4.7591    0.5036  -19.4015 C   0  0  0  0  0  0  0  0  0  0  0  0
   -3.6312    1.3299  -19.6343 C   0  0  0  0  0  0  0  0  0  0  0  0
   -3.2254    1.6002  -20.9115 C   0  0  0  0  0  0  0  0  0  0  0  0
   -3.9247    1.0648  -22.0167 C   0  0  0  0  0  0  0  0  0  0  0  0
   -5.0207    0.2633  -21.8175 C   0  0  0  0  0  0  0  0  0  0  0  0
   -5.4623   -0.0323  -20.5008 C   0  0  0  0  0  0  0  0  0  0  0  0
   -5.5565   -0.1502  -22.6659 H   0  0  0  0  0  0  0  0  0  0  0  0
   -3.5959    1.2987  -23.0245 H   0  0  0  0  0  0  0  0  0  0  0  0
   -2.3694    2.2442  -21.0837 H   0  0  0  0  0  0  0  0  0  0  0  0
   -3.1168    1.7504  -18.7745 H   0  0  0  0  0  0  0  0  0  0  0  0
   -4.6921    0.6303  -17.2392 H   0  0  0  0  0  0  0  0  0  0  0  0
   -7.7376   -1.7648  -18.6449 H   0  0  0  0  0  0  0  0  0  0  0  0
   -8.3815   -0.5696  -21.9178 C   0  0  0  0  0  0  0  0  0  0  0  0
   -9.0001   -1.5214  -22.9726 C   0  0  0  0  0  0  0  0  0  0  0  0
  -10.4497   -1.1190  -23.2605 C   0  0  0  0  0  0  0  0  0  0  0  0
  -11.0560   -1.0960  -22.3501 H   0  0  0  0  0  0  0  0  0  0  0  0
  -10.8989   -1.8333  -23.9553 H   0  0  0  0  0  0  0  0  0  0  0  0
  -10.4807   -0.1237  -23.7125 H   0  0  0  0  0  0  0  0  0  0  0  0
   -8.2235   -1.4562  -24.2984 C   0  0  0  0  0  0  0  0  0  0  0  0
   -8.6428   -2.1848  -25.0016 H   0  0  0  0  0  0  0  0  0  0  0  0
   -8.3225   -0.4567  -24.7356 H   0  0  0  0  0  0  0  0  0  0  0  0
   -7.1578   -1.6883  -24.1721 H   0  0  0  0  0  0  0  0  0  0  0  0
   -7.9370    0.3294  -22.3605 H   0  0  0  0  0  0  0  0  0  0  0  0
   -9.1445   -0.2402  -21.1900 H   0  0  0  0  0  0  0  0  0  0  0  0
   -8.5957   -4.1250  -23.2008 C   0  0  0  0  0  0  0  0  0  0  0  0
   -7.3088   -4.4791  -23.6364 C   0  0  0  0  0  0  0  0  0  0  0  0
   -7.1535   -5.4694  -24.5939 C   0  0  0  0  0  0  0  0  0  0  0  0
   -5.5657   -5.8116  -25.2228 Cl  0  0  0  0  0  0  0  0  0  0  0  0
   -8.2429   -6.1770  -25.1021 C   0  0  0  0  0  0  0  0  0  0  0  0
   -9.5052   -5.8521  -24.6451 C   0  0  0  0  0  0  0  0  0  0  0  0
   -9.6842   -4.8211  -23.7302 C   0  0  0  0  0  0  0  0  0  0  0  0
  -11.0740   -4.4581  -23.3573 C   0  0  0  0  0  0  0  0  0  0  0  0
  -12.0407   -4.7551  -24.0582 O   0  0  0  0  0  0  0  0  0  0  0  0
  -10.3818   -6.3932  -24.9818 H   0  0  0  0  0  0  0  0  0  0  0  0
   -8.0978   -6.9512  -25.8500 H   0  0  0  0  0  0  0  0  0  0  0  0
   -6.4314   -3.9756  -23.2393 H   0  0  0  0  0  0  0  0  0  0  0  0
  -10.3756   -2.3858  -20.8682 H   0  0  0  0  0  0  0  0  0  0  0  0
   -9.7914   -4.0574  -20.6562 H   0  0  0  0  0  0  0  0  0  0  0  0
  -12.5601   -3.9346  -20.5414 H   0  0  0  0  0  0  0  0  0  0  0  0
  -13.0893   -4.6399  -22.1024 H   0  0  0  0  0  0  0  0  0  0  0  0
  -13.5313   -3.1715  -23.9258 H   0  0  0  0  0  0  0  0  0  0  0  0
  -13.9028   -0.3711  -23.6750 H   0  0  0  0  0  0  0  0  0  0  0  0
  -14.9612   -1.4236  -24.6550 H   0  0  0  0  0  0  0  0  0  0  0  0
  -15.3185   -1.1003  -22.9338 H   0  0  0  0  0  0  0  0  0  0  0  0
  1  2  1  0
  2  3  1  0
  3  4  2  0
  3  5  1  0
  5  6  1  0
  6  7  1  0
  8  7  1  1
  8  9  1  0
  9 10  2  0
  9 11  1  0
 11 12  1  0
 12 13  2  0
 13 14  1  0
 14 15  2  0
 15 16  1  0
 16 17  2  0
 17 18  1  0
 18 19  2  0
 19 20  1  0
 20 21  2  0
 20 22  1  0
 19 23  1  0
 18 24  1  0
 17 25  1  0
 15 26  1  0
 13 27  1  0
 11 28  1  0
 28 29  1  0
 29 30  1  0
 30 31  1  0
 30 32  1  0
 30 33  1  0
 29 34  1  0
 34 35  1  0
 34 36  1  0
 34 37  1  0
 28 38  1  0
 28 39  1  0
  8 40  1  0
 40 41  2  0
 41 42  1  0
 42 43  1  0
 42 44  2  0
 44 45  1  0
 45 46  2  0
 46 47  1  0
 47 48  2  0
 45 49  1  0
 44 50  1  0
 41 51  1  0
  7 52  1  0
  7 53  1  0
  5 54  1  0
  5 55  1  0
  2 56  1  0
  1 57  1  0
  1 58  1  0
  1 59  1  0
 47  6  1  0
 29  8  1  0
 46 40  1  0
 21 12  1  0
 21 16  1  0
M  END
>  <cnnaffinities>  (55) 
[6.6051]

>  <score>  (55) 
6.6051

>  <index>  (55) 
57

>  <Smiles>  (55) 
C(N(C(=O)C(N1C([C@@]2(C(=O)N(c3c(nc(c4c(c(c(c(c34)[H])[H])[H])[H])[H])[H])C(C2(C([H])([H])[H])C([H])([H])[H])([H])[H])c2c(c(Cl)c(c(c2C1=O)[H])[H])[H])([H])[H])([H])[H])[H])([H])([H])[H]

>  <h>  (55) 
<NA>

>  <Training>  (55) 
True

>  <Success>  (55) 
True

>  <enamine_searched>  (55) 
False

>  <enamine_id>  (55) 
nan

$$$$

     RDKit          3D

 42 45  0  0  0  0  0  0  0  0999 V2000
  -12.0274   -4.0941  -22.9258 C   0  0  0  0  0  0  0  0  0  0  0  0
  -10.6383   -4.5041  -22.9221 N   0  0  0  0  0  0  0  0  0  0  0  0
   -9.8153   -4.0474  -21.8211 C   0  0  0  0  0  0  0  0  0  0  0  0
   -8.6613   -3.1971  -22.3679 C   0  0  1  0  0  0  0  0  0  0  0  0
   -7.7533   -2.7329  -21.2311 C   0  0  0  0  0  0  0  0  0  0  0  0
   -7.3572   -3.5069  -20.3784 O   0  0  0  0  0  0  0  0  0  0  0  0
   -7.3645   -1.4036  -21.2220 N   0  0  0  0  0  0  0  0  0  0  0  0
   -6.5799   -0.8435  -20.1786 C   0  0  0  0  0  0  0  0  0  0  0  0
   -6.8921   -1.0593  -18.8585 C   0  0  0  0  0  0  0  0  0  0  0  0
   -6.2098   -0.5361  -17.8083 N   0  0  0  0  0  0  0  0  0  0  0  0
   -5.1695    0.2169  -18.0762 C   0  0  0  0  0  0  0  0  0  0  0  0
   -4.7279    0.5242  -19.3910 C   0  0  0  0  0  0  0  0  0  0  0  0
   -3.5976    1.3486  -19.6333 C   0  0  0  0  0  0  0  0  0  0  0  0
   -3.1973    1.6195  -20.9113 C   0  0  0  0  0  0  0  0  0  0  0  0
   -3.9062    1.0756  -22.0077 C   0  0  0  0  0  0  0  0  0  0  0  0
   -5.0047    0.2771  -21.7999 C   0  0  0  0  0  0  0  0  0  0  0  0
   -5.4490   -0.0141  -20.4854 C   0  0  0  0  0  0  0  0  0  0  0  0
   -5.5355   -0.1393  -22.6524 H   0  0  0  0  0  0  0  0  0  0  0  0
   -3.5802    1.2980  -23.0192 H   0  0  0  0  0  0  0  0  0  0  0  0
   -2.3377    2.2600  -21.0950 H   0  0  0  0  0  0  0  0  0  0  0  0
   -3.0699    1.7681  -18.7788 H   0  0  0  0  0  0  0  0  0  0  0  0
   -4.6153    0.6222  -17.2278 H   0  0  0  0  0  0  0  0  0  0  0  0
   -7.7478   -1.6757  -18.5944 H   0  0  0  0  0  0  0  0  0  0  0  0
   -7.6493   -0.7936  -21.9760 H   0  0  0  0  0  0  0  0  0  0  0  0
   -7.9164   -4.0015  -23.4239 C   0  0  0  0  0  0  0  0  0  0  0  0
   -6.5764   -3.7346  -23.7170 C   0  0  0  0  0  0  0  0  0  0  0  0
   -5.9344   -4.4353  -24.7262 C   0  0  0  0  0  0  0  0  0  0  0  0
   -4.2682   -4.0815  -25.0879 Cl  0  0  0  0  0  0  0  0  0  0  0  0
   -6.6014   -5.4115  -25.4602 C   0  0  0  0  0  0  0  0  0  0  0  0
   -7.9362   -5.6707  -25.1785 C   0  0  0  0  0  0  0  0  0  0  0  0
   -8.6040   -4.9687  -24.1686 C   0  0  0  0  0  0  0  0  0  0  0  0
  -10.0872   -5.1836  -23.9825 C   0  0  0  0  0  0  0  0  0  0  0  0
  -10.7413   -5.8836  -24.7409 O   0  0  0  0  0  0  0  0  0  0  0  0
   -8.4836   -6.4079  -25.7600 H   0  0  0  0  0  0  0  0  0  0  0  0
   -6.0771   -5.9409  -26.2504 H   0  0  0  0  0  0  0  0  0  0  0  0
   -6.0314   -2.9775  -23.1625 H   0  0  0  0  0  0  0  0  0  0  0  0
   -9.1080   -2.3203  -22.8528 H   0  0  0  0  0  0  0  0  0  0  0  0
  -10.4448   -3.4541  -21.1527 H   0  0  0  0  0  0  0  0  0  0  0  0
   -9.3943   -4.8762  -21.2342 H   0  0  0  0  0  0  0  0  0  0  0  0
  -12.4935   -4.2557  -21.9506 H   0  0  0  0  0  0  0  0  0  0  0  0
  -12.5851   -4.6731  -23.6547 H   0  0  0  0  0  0  0  0  0  0  0  0
  -12.1167   -3.0255  -23.1411 H   0  0  0  0  0  0  0  0  0  0  0  0
  1  2  1  0
  2  3  1  0
  3  4  1  0
  4  5  1  0
  5  6  2  0
  5  7  1  0
  7  8  1  0
  8  9  2  0
  9 10  1  0
 10 11  2  0
 11 12  1  0
 12 13  2  0
 13 14  1  0
 14 15  2  0
 15 16  1  0
 16 17  2  0
 16 18  1  0
 15 19  1  0
 14 20  1  0
 13 21  1  0
 11 22  1  0
  9 23  1  0
  7 24  1  0
  4 25  1  0
 25 26  2  0
 26 27  1  0
 27 28  1  0
 27 29  2  0
 29 30  1  0
 30 31  2  0
 31 32  1  0
 32 33  2  0
 30 34  1  0
 29 35  1  0
 26 36  1  0
  4 37  1  6
  3 38  1  0
  3 39  1  0
  1 40  1  0
  1 41  1  0
  1 42  1  0
 32  2  1  0
 17  8  1  0
 31 25  1  0
 17 12  1  0
M  END
>  <cnnaffinities>  (56) 
[5.71403]

>  <score>  (56) 
5.71403

>  <index>  (56) 
58

>  <Smiles>  (56) 
C(N1C([C@@](C(=O)N(c2c(nc(c3c(c(c(c(c23)[H])[H])[H])[H])[H])[H])[H])(c2c(c(Cl)c(c(c2C1=O)[H])[H])[H])[H])([H])[H])([H])([H])[H]

>  <h>  (56) 
<NA>

>  <Training>  (56) 
True

>  <Success>  (56) 
True

>  <enamine_searched>  (56) 
False

>  <enamine_id>  (56) 
nan

$$$$

     RDKit          3D

 60 65  0  0  0  0  0  0  0  0999 V2000
  -14.3856   -1.4436  -23.8180 C   0  0  0  0  0  0  0  0  0  0  0  0
  -13.6678   -2.6117  -23.3588 N   0  0  0  0  0  0  0  0  0  0  0  0
  -13.2706   -2.6249  -22.0621 C   0  0  0  0  0  0  0  0  0  0  0  0
  -13.5387   -1.7184  -21.2895 O   0  0  0  0  0  0  0  0  0  0  0  0
  -12.4821   -3.8577  -21.6659 C   0  0  0  0  0  0  0  0  0  0  0  0
  -11.1286   -3.9205  -22.1899 N   0  0  0  0  0  0  0  0  0  0  0  0
  -10.0125   -3.3997  -21.4088 C   0  0  0  0  0  0  0  0  0  0  0  0
   -8.8074   -2.9551  -22.2697 C   0  0  2  0  0  0  0  0  0  0  0  0
   -7.6366   -2.7090  -21.3186 C   0  0  0  0  0  0  0  0  0  0  0  0
   -7.0199   -3.5457  -20.6913 O   0  0  0  0  0  0  0  0  0  0  0  0
   -7.3912   -1.3528  -21.2371 N   0  0  0  0  0  0  0  0  0  0  0  0
   -6.5914   -0.8418  -20.1914 C   0  0  0  0  0  0  0  0  0  0  0  0
   -6.9038   -1.0953  -18.8792 C   0  0  0  0  0  0  0  0  0  0  0  0
   -6.2362   -0.5700  -17.8218 N   0  0  0  0  0  0  0  0  0  0  0  0
   -5.2074    0.2002  -18.0867 C   0  0  0  0  0  0  0  0  0  0  0  0
   -4.7534    0.5062  -19.4026 C   0  0  0  0  0  0  0  0  0  0  0  0
   -3.6234    1.3289  -19.6388 C   0  0  0  0  0  0  0  0  0  0  0  0
   -3.2210    1.5982  -20.9173 C   0  0  0  0  0  0  0  0  0  0  0  0
   -3.9220    1.0601  -22.0189 C   0  0  0  0  0  0  0  0  0  0  0  0
   -5.0206    0.2605  -21.8191 C   0  0  0  0  0  0  0  0  0  0  0  0
   -5.4640   -0.0241  -20.4995 C   0  0  0  0  0  0  0  0  0  0  0  0
   -5.5546   -0.1617  -22.6648 H   0  0  0  0  0  0  0  0  0  0  0  0
   -3.5943    1.2920  -23.0274 H   0  0  0  0  0  0  0  0  0  0  0  0
   -2.3654    2.2422  -21.0922 H   0  0  0  0  0  0  0  0  0  0  0  0
   -3.1067    1.7491  -18.7809 H   0  0  0  0  0  0  0  0  0  0  0  0
   -4.6694    0.6262  -17.2384 H   0  0  0  0  0  0  0  0  0  0  0  0
   -7.7395   -1.7463  -18.6331 H   0  0  0  0  0  0  0  0  0  0  0  0
   -8.3807   -0.5463  -21.9335 C   0  0  0  0  0  0  0  0  0  0  0  0
   -9.0137   -1.5467  -22.9067 C   0  0  2  0  0  0  0  0  0  0  0  0
  -10.4675   -1.2175  -23.2537 C   0  0  0  0  0  0  0  0  0  0  0  0
  -10.5515    0.0431  -24.0191 C   0  0  0  0  0  0  0  0  0  0  0  0
  -10.7661    1.2357  -23.4814 N   0  0  0  0  0  0  0  0  0  0  0  0
  -10.6847    2.0853  -24.5030 N   0  0  0  0  0  0  0  0  0  0  0  0
  -10.4347    1.4206  -25.6000 N   0  0  0  0  0  2  0  0  0  0  0  0
  -10.3500    0.1230  -25.3267 N   0  0  0  0  0  0  0  0  0  0  0  0
  -11.0756   -1.1153  -22.3524 H   0  0  0  0  0  0  0  0  0  0  0  0
  -10.8709   -2.0166  -23.8728 H   0  0  0  0  0  0  0  0  0  0  0  0
   -8.4333   -1.5300  -23.8399 H   0  0  0  0  0  0  0  0  0  0  0  0
   -9.1299   -0.1401  -21.2364 H   0  0  0  0  0  0  0  0  0  0  0  0
   -7.9264    0.3020  -22.4560 H   0  0  0  0  0  0  0  0  0  0  0  0
   -8.5293   -4.0110  -23.3118 C   0  0  0  0  0  0  0  0  0  0  0  0
   -7.2612   -4.1310  -23.8837 C   0  0  0  0  0  0  0  0  0  0  0  0
   -7.0402   -5.0623  -24.8816 C   0  0  0  0  0  0  0  0  0  0  0  0
   -5.4878   -5.1303  -25.6484 Cl  0  0  0  0  0  0  0  0  0  0  0  0
   -8.0520   -5.9074  -25.3290 C   0  0  0  0  0  0  0  0  0  0  0  0
   -9.3127   -5.7734  -24.7793 C   0  0  0  0  0  0  0  0  0  0  0  0
   -9.5662   -4.8020  -23.8138 C   0  0  0  0  0  0  0  0  0  0  0  0
  -10.9708   -4.5631  -23.3763 C   0  0  0  0  0  0  0  0  0  0  0  0
  -11.9453   -4.8901  -24.0608 O   0  0  0  0  0  0  0  0  0  0  0  0
  -10.1236   -6.4220  -25.0903 H   0  0  0  0  0  0  0  0  0  0  0  0
   -7.8511   -6.6346  -26.1091 H   0  0  0  0  0  0  0  0  0  0  0  0
   -6.4503   -3.4930  -23.5542 H   0  0  0  0  0  0  0  0  0  0  0  0
  -10.3546   -2.5138  -20.8616 H   0  0  0  0  0  0  0  0  0  0  0  0
   -9.6782   -4.1602  -20.6932 H   0  0  0  0  0  0  0  0  0  0  0  0
  -12.4849   -3.9789  -20.5824 H   0  0  0  0  0  0  0  0  0  0  0  0
  -13.0305   -4.6748  -22.1364 H   0  0  0  0  0  0  0  0  0  0  0  0
  -13.4500   -3.4010  -23.9577 H   0  0  0  0  0  0  0  0  0  0  0  0
  -14.7226   -1.5810  -24.8453 H   0  0  0  0  0  0  0  0  0  0  0  0
  -15.2508   -1.2626  -23.1722 H   0  0  0  0  0  0  0  0  0  0  0  0
  -13.7421   -0.5551  -23.7732 H   0  0  0  0  0  0  0  0  0  0  0  0
  1  2  1  0
  2  3  1  0
  3  4  2  0
  3  5  1  0
  5  6  1  0
  6  7  1  0
  8  7  1  1
  8  9  1  0
  9 10  2  0
  9 11  1  0
 11 12  1  0
 12 13  2  0
 13 14  1  0
 14 15  2  0
 15 16  1  0
 16 17  2  0
 17 18  1  0
 18 19  2  0
 19 20  1  0
 20 21  2  0
 20 22  1  0
 19 23  1  0
 18 24  1  0
 17 25  1  0
 15 26  1  0
 13 27  1  0
 11 28  1  0
 28 29  1  0
 29 30  1  0
 30 31  1  0
 31 32  1  0
 32 33  2  0
 33 34  1  0
 34 35  1  0
 30 36  1  0
 30 37  1  0
 29 38  1  6
 28 39  1  0
 28 40  1  0
  8 41  1  0
 41 42  2  0
 42 43  1  0
 43 44  1  0
 43 45  2  0
 45 46  1  0
 46 47  2  0
 47 48  1  0
 48 49  2  0
 46 50  1  0
 45 51  1  0
 42 52  1  0
  7 53  1  0
  7 54  1  0
  5 55  1  0
  5 56  1  0
  2 57  1  0
  1 58  1  0
  1 59  1  0
  1 60  1  0
 48  6  1  0
 29  8  1  0
 35 31  2  0
 47 41  1  0
 21 12  1  0
 21 16  1  0
M  CHG  1  34  -1
M  END
>  <cnnaffinities>  (57) 
[6.60851, 6.82034, 6.81104]

>  <score>  (57) 
6.60851

>  <index>  (57) 
59

>  <Smiles>  (57) 
C(N(C(=O)C(N1C([C@@]2(C(=O)N(c3c(nc(c4c(c(c(c(c34)[H])[H])[H])[H])[H])[H])C([C@@]2(C(c2nn[n-]n2)([H])[H])[H])([H])[H])c2c(c(Cl)c(c(c2C1=O)[H])[H])[H])([H])[H])([H])[H])[H])([H])([H])[H]

>  <h>  (57) 
<NA>

>  <Training>  (57) 
True

>  <Success>  (57) 
True

>  <enamine_searched>  (57) 
False

>  <enamine_id>  (57) 
nan

$$$$

     RDKit          3D

 62 67  0  0  0  0  0  0  0  0999 V2000
  -14.7027   -3.6834  -24.4265 C   0  0  0  0  0  0  0  0  0  0  0  0
  -13.8855   -2.4756  -23.9744 C   0  0  0  0  0  0  0  0  0  0  0  0
  -13.9640   -2.2035  -22.5533 N   0  0  0  0  0  0  0  0  0  0  0  0
  -14.9465   -1.3843  -22.1642 N   0  0  0  0  0  0  0  0  0  0  0  0
  -14.9685   -1.4701  -20.8416 C   0  0  0  0  0  0  0  0  0  0  0  0
  -13.9685   -2.3429  -20.3712 C   0  0  0  0  0  0  0  0  0  0  0  0
  -13.3092   -2.7760  -21.5046 C   0  0  0  0  0  0  0  0  0  0  0  0
  -12.2936   -3.8581  -21.7068 C   0  0  0  0  0  0  0  0  0  0  0  0
  -11.0773   -3.5819  -22.4842 N   0  0  0  0  0  0  0  0  0  0  0  0
   -9.9175   -3.2263  -21.6589 C   0  0  0  0  0  0  0  0  0  0  0  0
   -8.7037   -2.7610  -22.4833 C   0  0  2  0  0  0  0  0  0  0  0  0
   -7.5442   -2.6280  -21.4791 C   0  0  0  0  0  0  0  0  0  0  0  0
   -6.9342   -3.5345  -20.9454 O   0  0  0  0  0  0  0  0  0  0  0  0
   -7.3071   -1.2923  -21.2545 N   0  0  0  0  0  0  0  0  0  0  0  0
   -6.5089   -0.8417  -20.1794 C   0  0  0  0  0  0  0  0  0  0  0  0
   -6.8283   -1.1249  -18.8758 C   0  0  0  0  0  0  0  0  0  0  0  0
   -6.1917   -0.5804  -17.8071 N   0  0  0  0  0  0  0  0  0  0  0  0
   -5.1901    0.2336  -18.0478 C   0  0  0  0  0  0  0  0  0  0  0  0
   -4.7169    0.5568  -19.3534 C   0  0  0  0  0  0  0  0  0  0  0  0
   -3.6007    1.4040  -19.5780 C   0  0  0  0  0  0  0  0  0  0  0  0
   -3.1821    1.6748  -20.8540 C   0  0  0  0  0  0  0  0  0  0  0  0
   -3.8547    1.1141  -21.9629 C   0  0  0  0  0  0  0  0  0  0  0  0
   -4.9380    0.2956  -21.7709 C   0  0  0  0  0  0  0  0  0  0  0  0
   -5.3946    0.0050  -20.4582 C   0  0  0  0  0  0  0  0  0  0  0  0
   -5.4532   -0.1476  -22.6162 H   0  0  0  0  0  0  0  0  0  0  0  0
   -3.5176    1.3399  -22.9711 H   0  0  0  0  0  0  0  0  0  0  0  0
   -2.3307    2.3270  -21.0234 H   0  0  0  0  0  0  0  0  0  0  0  0
   -3.0977    1.8408  -18.7205 H   0  0  0  0  0  0  0  0  0  0  0  0
   -4.6920    0.6745  -17.1836 H   0  0  0  0  0  0  0  0  0  0  0  0
   -7.6434   -1.8088  -18.6456 H   0  0  0  0  0  0  0  0  0  0  0  0
   -8.2760   -0.4287  -21.9079 C   0  0  0  0  0  0  0  0  0  0  0  0
   -8.8143   -1.3023  -23.0493 C   0  0  2  0  0  0  0  0  0  0  0  0
  -10.1852   -0.8426  -23.5360 C   0  0  0  0  0  0  0  0  0  0  0  0
  -10.1480    0.2106  -23.8396 H   0  0  0  0  0  0  0  0  0  0  0  0
  -10.5213   -1.4330  -24.3950 H   0  0  0  0  0  0  0  0  0  0  0  0
  -10.9287   -0.9411  -22.7377 H   0  0  0  0  0  0  0  0  0  0  0  0
   -8.1021   -1.2526  -23.8864 H   0  0  0  0  0  0  0  0  0  0  0  0
   -7.8042    0.4956  -22.2550 H   0  0  0  0  0  0  0  0  0  0  0  0
   -9.0834   -0.1445  -21.2120 H   0  0  0  0  0  0  0  0  0  0  0  0
   -8.4267   -3.8215  -23.5223 C   0  0  0  0  0  0  0  0  0  0  0  0
   -7.1279   -4.0267  -23.9984 C   0  0  0  0  0  0  0  0  0  0  0  0
   -6.8870   -5.0306  -24.9110 C   0  0  0  0  0  0  0  0  0  0  0  0
   -5.6270   -5.2516  -25.3204 F   0  0  0  0  0  0  0  0  0  0  0  0
   -7.8997   -5.8466  -25.4045 C   0  0  0  0  0  0  0  0  0  0  0  0
   -9.1904   -5.6258  -24.9549 C   0  0  0  0  0  0  0  0  0  0  0  0
   -9.4573   -4.6245  -24.0214 C   0  0  0  0  0  0  0  0  0  0  0  0
  -10.8643   -4.4479  -23.5540 C   0  0  0  0  0  0  0  0  0  0  0  0
  -11.7802   -5.0490  -24.1027 O   0  0  0  0  0  0  0  0  0  0  0  0
  -10.0176   -6.2326  -25.3085 H   0  0  0  0  0  0  0  0  0  0  0  0
   -7.6614   -6.6288  -26.1142 H   0  0  0  0  0  0  0  0  0  0  0  0
   -6.3001   -3.4350  -23.6252 H   0  0  0  0  0  0  0  0  0  0  0  0
  -10.2075   -2.4393  -20.9548 H   0  0  0  0  0  0  0  0  0  0  0  0
   -9.5731   -4.0935  -21.0712 H   0  0  0  0  0  0  0  0  0  0  0  0
  -12.0144   -4.2518  -20.7204 H   0  0  0  0  0  0  0  0  0  0  0  0
  -12.8254   -4.6254  -22.2716 H   0  0  0  0  0  0  0  0  0  0  0  0
  -13.7269   -2.5730  -19.3450 H   0  0  0  0  0  0  0  0  0  0  0  0
  -15.7313   -0.9228  -20.2986 H   0  0  0  0  0  0  0  0  0  0  0  0
  -12.8369   -2.5917  -24.2505 H   0  0  0  0  0  0  0  0  0  0  0  0
  -14.2538   -1.5492  -24.4112 H   0  0  0  0  0  0  0  0  0  0  0  0
  -14.9619   -3.5734  -25.4798 H   0  0  0  0  0  0  0  0  0  0  0  0
  -15.6282   -3.8072  -23.8573 H   0  0  0  0  0  0  0  0  0  0  0  0
  -14.1103   -4.5897  -24.3199 H   0  0  0  0  0  0  0  0  0  0  0  0
  1  2  1  0
  2  3  1  0
  3  4  1  0
  4  5  2  0
  5  6  1  0
  6  7  2  0
  7  8  1  0
  8  9  1  0
  9 10  1  0
 11 10  1  1
 11 12  1  0
 12 13  2  0
 12 14  1  0
 14 15  1  0
 15 16  2  0
 16 17  1  0
 17 18  2  0
 18 19  1  0
 19 20  2  0
 20 21  1  0
 21 22  2  0
 22 23  1  0
 23 24  2  0
 23 25  1  0
 22 26  1  0
 21 27  1  0
 20 28  1  0
 18 29  1  0
 16 30  1  0
 14 31  1  0
 31 32  1  0
 32 33  1  0
 33 34  1  0
 33 35  1  0
 33 36  1  0
 32 37  1  6
 31 38  1  0
 31 39  1  0
 11 40  1  0
 40 41  2  0
 41 42  1  0
 42 43  1  0
 42 44  2  0
 44 45  1  0
 45 46  2  0
 46 47  1  0
 47 48  2  0
 45 49  1  0
 44 50  1  0
 41 51  1  0
 10 52  1  0
 10 53  1  0
  8 54  1  0
  8 55  1  0
  6 56  1  0
  5 57  1  0
  2 58  1  0
  2 59  1  0
  1 60  1  0
  1 61  1  0
  1 62  1  0
  7  3  1  0
 47  9  1  0
 32 11  1  0
 46 40  1  0
 24 15  1  0
 24 19  1  0
M  END
>  <cnnaffinities>  (58) 
[7.05662]

>  <score>  (58) 
7.05662

>  <index>  (58) 
60

>  <Smiles>  (58) 
C(C(n1nc(c(c1C(N1C([C@@]2(C(=O)N(c3c(nc(c4c(c(c(c(c34)[H])[H])[H])[H])[H])[H])C([C@@]2(C([H])([H])[H])[H])([H])[H])c2c(c(F)c(c(c2C1=O)[H])[H])[H])([H])[H])([H])[H])[H])[H])([H])[H])([H])([H])[H]

>  <h>  (58) 
<NA>

>  <Training>  (58) 
True

>  <Success>  (58) 
True

>  <enamine_searched>  (58) 
False

>  <enamine_id>  (58) 
nan

$$$$

     RDKit          3D

 44 47  0  0  0  0  0  0  0  0999 V2000
   -9.1601    0.2447  -21.0776 O   0  0  0  0  0  0  0  0  0  0  0  0
   -8.3723   -0.3140  -21.8121 C   0  0  0  0  0  0  0  0  0  0  0  0
   -7.4421   -1.4117  -21.2707 C   0  0  0  0  0  0  0  0  0  0  0  0
   -6.5709   -0.8348  -20.1735 C   0  0  0  0  0  0  0  0  0  0  0  0
   -6.8774   -1.0406  -18.8540 C   0  0  0  0  0  0  0  0  0  0  0  0
   -6.1926   -0.5333  -17.7928 N   0  0  0  0  0  0  0  0  0  0  0  0
   -5.1560    0.2221  -18.0648 C   0  0  0  0  0  0  0  0  0  0  0  0
   -4.7211    0.5324  -19.3807 C   0  0  0  0  0  0  0  0  0  0  0  0
   -3.5986    1.3647  -19.6240 C   0  0  0  0  0  0  0  0  0  0  0  0
   -3.2110    1.6610  -20.9022 C   0  0  0  0  0  0  0  0  0  0  0  0
   -3.9320    1.1283  -21.9949 C   0  0  0  0  0  0  0  0  0  0  0  0
   -5.0196    0.3163  -21.7856 C   0  0  0  0  0  0  0  0  0  0  0  0
   -5.4490   -0.0033  -20.4707 C   0  0  0  0  0  0  0  0  0  0  0  0
   -5.5543   -0.0872  -22.6380 H   0  0  0  0  0  0  0  0  0  0  0  0
   -3.6165    1.3680  -23.0062 H   0  0  0  0  0  0  0  0  0  0  0  0
   -2.3592    2.3107  -21.0845 H   0  0  0  0  0  0  0  0  0  0  0  0
   -3.0649    1.7812  -18.7734 H   0  0  0  0  0  0  0  0  0  0  0  0
   -4.6019    0.6278  -17.2162 H   0  0  0  0  0  0  0  0  0  0  0  0
   -7.7295   -1.6606  -18.5815 H   0  0  0  0  0  0  0  0  0  0  0  0
   -8.0715   -2.2018  -20.8447 H   0  0  0  0  0  0  0  0  0  0  0  0
   -6.8311   -1.8522  -22.0681 H   0  0  0  0  0  0  0  0  0  0  0  0
   -8.1963    0.0594  -23.1449 N   0  0  0  0  0  0  0  0  0  0  0  0
   -8.3977    1.4598  -23.5016 C   0  0  0  0  0  0  0  0  0  0  0  0
   -7.3916    1.8627  -24.5792 C   0  0  0  0  0  0  0  0  0  0  0  0
   -7.4469    0.9343  -25.7881 C   0  0  0  0  0  0  0  0  0  0  0  0
   -6.4904    1.3370  -26.9354 C   0  0  0  0  0  0  0  0  0  0  0  0
   -7.6904    1.5933  -27.8746 C   0  0  0  0  0  0  0  0  0  0  0  0
   -8.6535    1.1928  -26.7348 C   0  0  0  0  0  0  0  0  0  0  0  0
   -9.2659    0.3097  -26.9372 H   0  0  0  0  0  0  0  0  0  0  0  0
   -9.3268    1.9864  -26.3990 H   0  0  0  0  0  0  0  0  0  0  0  0
   -7.7901    2.6267  -28.2178 H   0  0  0  0  0  0  0  0  0  0  0  0
   -7.7295    0.9467  -28.7555 H   0  0  0  0  0  0  0  0  0  0  0  0
   -5.8742    2.2143  -26.7209 H   0  0  0  0  0  0  0  0  0  0  0  0
   -5.8143    0.5395  -27.2557 H   0  0  0  0  0  0  0  0  0  0  0  0
   -7.2941   -0.5169  -25.3456 C   0  0  0  0  0  0  0  0  0  0  0  0
   -8.2935   -0.8803  -24.2561 C   0  0  0  0  0  0  0  0  0  0  0  0
   -9.3119   -0.8852  -24.6875 H   0  0  0  0  0  0  0  0  0  0  0  0
   -8.1176   -1.8881  -23.8816 H   0  0  0  0  0  0  0  0  0  0  0  0
   -6.2753   -0.6828  -24.9741 H   0  0  0  0  0  0  0  0  0  0  0  0
   -7.4222   -1.1787  -26.2085 H   0  0  0  0  0  0  0  0  0  0  0  0
   -6.3772    1.8572  -24.1555 H   0  0  0  0  0  0  0  0  0  0  0  0
   -7.5777    2.8919  -24.9009 H   0  0  0  0  0  0  0  0  0  0  0  0
   -8.2532    2.0564  -22.6000 H   0  0  0  0  0  0  0  0  0  0  0  0
   -9.4254    1.6594  -23.8455 H   0  0  0  0  0  0  0  0  0  0  0  0
  1  2  2  0
  2  3  1  0
  3  4  1  0
  4  5  2  0
  5  6  1  0
  6  7  2  0
  7  8  1  0
  8  9  2  0
  9 10  1  0
 10 11  2  0
 11 12  1  0
 12 13  2  0
 12 14  1  0
 11 15  1  0
 10 16  1  0
  9 17  1  0
  7 18  1  0
  5 19  1  0
  3 20  1  0
  3 21  1  0
  2 22  1  0
 22 23  1  0
 23 24  1  0
 24 25  1  0
 25 26  1  0
 26 27  1  0
 27 28  1  0
 28 29  1  0
 28 30  1  0
 27 31  1  0
 27 32  1  0
 26 33  1  0
 26 34  1  0
 25 35  1  0
 35 36  1  0
 36 37  1  0
 36 38  1  0
 35 39  1  0
 35 40  1  0
 24 41  1  0
 24 42  1  0
 23 43  1  0
 23 44  1  0
 13  4  1  0
 36 22  1  0
 13  8  1  0
 28 25  1  0
M  END
>  <cnnaffinities>  (59) 
[4.77769, 4.77771, 4.77792, 4.77777, 4.59732, 4.59553, 4.59459, 5.16582, 5.16721, 5.16703, 5.16614, 4.41509, 4.41516, 4.41503, 4.62114]

>  <score>  (59) 
4.77769

>  <index>  (59) 
61

>  <Smiles>  (59) 
O=C(C(c1c(nc(c2c(c(c(c(c12)[H])[H])[H])[H])[H])[H])([H])[H])N1C(C(C2(C(C(C2([H])[H])([H])[H])([H])[H])C(C1([H])[H])([H])[H])([H])[H])([H])[H]

>  <h>  (59) 
<NA>

>  <Training>  (59) 
True

>  <Success>  (59) 
True

>  <enamine_searched>  (59) 
False

>  <enamine_id>  (59) 
nan

$$$$

     RDKit          3D

 44 47  0  0  0  0  0  0  0  0999 V2000
   -8.3636    0.7565  -21.5946 O   0  0  0  0  0  0  0  0  0  0  0  0
   -8.4678   -0.4295  -21.8523 C   0  0  0  0  0  0  0  0  0  0  0  0
   -7.4489   -1.4387  -21.2636 C   0  0  0  0  0  0  0  0  0  0  0  0
   -6.5795   -0.8321  -20.1818 C   0  0  0  0  0  0  0  0  0  0  0  0
   -6.8764   -1.0404  -18.8571 C   0  0  0  0  0  0  0  0  0  0  0  0
   -6.1944   -0.5355  -17.7959 N   0  0  0  0  0  0  0  0  0  0  0  0
   -5.1556    0.2223  -18.0631 C   0  0  0  0  0  0  0  0  0  0  0  0
   -4.7229    0.5340  -19.3821 C   0  0  0  0  0  0  0  0  0  0  0  0
   -3.5958    1.3646  -19.6199 C   0  0  0  0  0  0  0  0  0  0  0  0
   -3.2101    1.6610  -20.9024 C   0  0  0  0  0  0  0  0  0  0  0  0
   -3.9340    1.1359  -21.9931 C   0  0  0  0  0  0  0  0  0  0  0  0
   -5.0272    0.3255  -21.7872 C   0  0  0  0  0  0  0  0  0  0  0  0
   -5.4538    0.0014  -20.4717 C   0  0  0  0  0  0  0  0  0  0  0  0
   -5.5808   -0.0533  -22.6385 H   0  0  0  0  0  0  0  0  0  0  0  0
   -3.6251    1.3811  -23.0048 H   0  0  0  0  0  0  0  0  0  0  0  0
   -2.3540    2.3053  -21.0862 H   0  0  0  0  0  0  0  0  0  0  0  0
   -3.0540    1.7777  -18.7727 H   0  0  0  0  0  0  0  0  0  0  0  0
   -4.5988    0.6287  -17.2174 H   0  0  0  0  0  0  0  0  0  0  0  0
   -7.7289   -1.6604  -18.5867 H   0  0  0  0  0  0  0  0  0  0  0  0
   -7.9864   -2.3009  -20.8421 H   0  0  0  0  0  0  0  0  0  0  0  0
   -6.8095   -1.8392  -22.0631 H   0  0  0  0  0  0  0  0  0  0  0  0
   -9.4952   -0.9120  -22.6369 N   0  0  0  0  0  0  0  0  0  0  0  0
   -9.4848   -2.2466  -23.2377 C   0  0  0  0  0  0  0  0  0  0  0  0
  -10.5425   -2.3944  -24.3281 C   0  0  0  0  0  0  0  0  0  0  0  0
  -11.9438   -2.0301  -23.8408 C   0  0  0  0  0  0  0  0  0  0  0  0
  -12.9286   -1.9544  -24.9881 C   0  0  0  0  0  0  0  0  0  0  0  0
  -14.3769   -2.2344  -24.7301 C   0  0  0  0  0  0  0  0  0  0  0  0
  -13.5499   -3.2125  -25.5029 C   0  0  0  0  0  0  0  0  0  0  0  0
  -13.2670   -4.1337  -25.0107 H   0  0  0  0  0  0  0  0  0  0  0  0
  -13.7499   -3.3126  -26.5576 H   0  0  0  0  0  0  0  0  0  0  0  0
  -15.1276   -1.6710  -25.2708 H   0  0  0  0  0  0  0  0  0  0  0  0
  -14.6392   -2.5052  -23.7160 H   0  0  0  0  0  0  0  0  0  0  0  0
  -12.7322   -1.1896  -25.7261 H   0  0  0  0  0  0  0  0  0  0  0  0
  -11.9359   -0.7528  -22.9816 C   0  0  0  0  0  0  0  0  0  0  0  0
  -10.5990   -0.0170  -23.0012 C   0  0  0  0  0  0  0  0  0  0  0  0
  -10.4287    0.4235  -23.9928 H   0  0  0  0  0  0  0  0  0  0  0  0
  -10.6266    0.8164  -22.2975 H   0  0  0  0  0  0  0  0  0  0  0  0
  -12.1806   -1.0089  -21.9452 H   0  0  0  0  0  0  0  0  0  0  0  0
  -12.7303   -0.0782  -23.3187 H   0  0  0  0  0  0  0  0  0  0  0  0
  -12.2844   -2.8486  -23.1966 H   0  0  0  0  0  0  0  0  0  0  0  0
  -10.2744   -1.7804  -25.1945 H   0  0  0  0  0  0  0  0  0  0  0  0
  -10.5407   -3.4287  -24.6915 H   0  0  0  0  0  0  0  0  0  0  0  0
   -9.6468   -3.0150  -22.4689 H   0  0  0  0  0  0  0  0  0  0  0  0
   -8.5015   -2.4455  -23.6822 H   0  0  0  0  0  0  0  0  0  0  0  0
  1  2  2  0
  2  3  1  0
  3  4  1  0
  4  5  2  0
  5  6  1  0
  6  7  2  0
  7  8  1  0
  8  9  2  0
  9 10  1  0
 10 11  2  0
 11 12  1  0
 12 13  2  0
 12 14  1  0
 11 15  1  0
 10 16  1  0
  9 17  1  0
  7 18  1  0
  5 19  1  0
  3 20  1  0
  3 21  1  0
  2 22  1  0
 22 23  1  0
 23 24  1  0
 24 25  1  0
 25 26  1  0
 26 27  1  0
 27 28  1  0
 28 29  1  0
 28 30  1  0
 27 31  1  0
 27 32  1  0
 26 33  1  0
 25 34  1  0
 34 35  1  0
 35 36  1  0
 35 37  1  0
 34 38  1  0
 34 39  1  0
 25 40  1  0
 24 41  1  0
 24 42  1  0
 23 43  1  0
 23 44  1  0
 13  4  1  0
 35 22  1  0
 13  8  1  0
 28 26  1  0
M  END
>  <cnnaffinities>  (60) 
[5.19875, 5.24441, 5.3135, 5.35156, 5.48988, 5.23836, 5.17443, 5.10302]

>  <score>  (60) 
5.19875

>  <index>  (60) 
62

>  <Smiles>  (60) 
O=C(C(c1c(nc(c2c(c(c(c(c12)[H])[H])[H])[H])[H])[H])([H])[H])N1C(C(C(C2(C(C2([H])[H])([H])[H])[H])(C(C1([H])[H])([H])[H])[H])([H])[H])([H])[H]

>  <h>  (60) 
<NA>

>  <Training>  (60) 
True

>  <Success>  (60) 
True

>  <enamine_searched>  (60) 
False

>  <enamine_id>  (60) 
nan

$$$$

     RDKit          3D

 57 61  0  0  0  0  0  0  0  0999 V2000
   -7.3355    3.4268  -21.8522 C   0  0  0  0  0  0  0  0  0  0  0  0
   -8.1791    2.9576  -22.9373 N   0  0  0  0  0  0  0  0  0  0  0  0
   -7.6091    2.2523  -23.9426 C   0  0  0  0  0  0  0  0  0  0  0  0
   -6.3959    2.1234  -24.0470 O   0  0  0  0  0  0  0  0  0  0  0  0
   -8.5608    1.6318  -24.9719 C   0  0  0  0  0  0  0  0  0  0  0  0
   -9.3011    0.4893  -24.4678 N   0  0  0  0  0  0  0  0  0  0  0  0
   -8.5982   -0.7673  -24.2833 C   0  0  0  0  0  0  0  0  0  0  0  0
   -9.0097   -1.4752  -22.9634 C   0  0  2  0  0  0  0  0  0  0  0  0
   -8.4593   -0.6889  -21.7473 C   0  0  0  0  0  0  0  0  0  0  0  0
   -8.8688    0.3684  -21.3138 O   0  0  0  0  0  0  0  0  0  0  0  0
   -7.4026   -1.3855  -21.2070 N   0  0  0  0  0  0  0  0  0  0  0  0
   -6.6046   -0.8124  -20.1768 C   0  0  0  0  0  0  0  0  0  0  0  0
   -6.9115   -1.0423  -18.8612 C   0  0  0  0  0  0  0  0  0  0  0  0
   -6.2100   -0.5471  -17.8101 N   0  0  0  0  0  0  0  0  0  0  0  0
   -5.1712    0.2073  -18.0791 C   0  0  0  0  0  0  0  0  0  0  0  0
   -4.7319    0.5275  -19.3946 C   0  0  0  0  0  0  0  0  0  0  0  0
   -3.6026    1.3579  -19.6409 C   0  0  0  0  0  0  0  0  0  0  0  0
   -3.2136    1.6468  -20.9197 C   0  0  0  0  0  0  0  0  0  0  0  0
   -3.9350    1.1179  -22.0143 C   0  0  0  0  0  0  0  0  0  0  0  0
   -5.0305    0.3147  -21.8024 C   0  0  0  0  0  0  0  0  0  0  0  0
   -5.4672    0.0012  -20.4867 C   0  0  0  0  0  0  0  0  0  0  0  0
   -5.5842   -0.0746  -22.6524 H   0  0  0  0  0  0  0  0  0  0  0  0
   -3.6421    1.3636  -23.0291 H   0  0  0  0  0  0  0  0  0  0  0  0
   -2.3621    2.2981  -21.0977 H   0  0  0  0  0  0  0  0  0  0  0  0
   -3.0756    1.7738  -18.7853 H   0  0  0  0  0  0  0  0  0  0  0  0
   -4.6205    0.6116  -17.2280 H   0  0  0  0  0  0  0  0  0  0  0  0
   -7.7636   -1.6663  -18.6027 H   0  0  0  0  0  0  0  0  0  0  0  0
   -7.0765   -2.6166  -21.9018 C   0  0  0  0  0  0  0  0  0  0  0  0
   -8.3064   -2.8621  -22.8089 C   0  0  2  0  0  0  0  0  0  0  0  0
   -7.9387   -3.5862  -24.1056 C   0  0  0  0  0  0  0  0  0  0  0  0
   -7.4347   -4.8601  -23.7551 O   0  0  0  0  0  0  0  0  0  0  0  0
   -7.1978   -5.3274  -24.5663 H   0  0  0  0  0  0  0  0  0  0  0  0
   -7.1767   -3.0053  -24.6510 H   0  0  0  0  0  0  0  0  0  0  0  0
   -8.8231   -3.6807  -24.7560 H   0  0  0  0  0  0  0  0  0  0  0  0
   -8.9943   -3.5242  -22.2785 H   0  0  0  0  0  0  0  0  0  0  0  0
   -6.9104   -3.4293  -21.1861 H   0  0  0  0  0  0  0  0  0  0  0  0
   -6.1515   -2.5038  -22.4888 H   0  0  0  0  0  0  0  0  0  0  0  0
  -10.5287   -1.4885  -22.8914 C   0  0  0  0  0  0  0  0  0  0  0  0
  -11.1773   -2.3308  -21.9801 C   0  0  0  0  0  0  0  0  0  0  0  0
  -12.5572   -2.3295  -21.8963 C   0  0  0  0  0  0  0  0  0  0  0  0
  -13.3553   -3.3838  -20.7672 Cl  0  0  0  0  0  0  0  0  0  0  0  0
  -13.3322   -1.4850  -22.6911 C   0  0  0  0  0  0  0  0  0  0  0  0
  -12.6973   -0.5959  -23.5356 C   0  0  0  0  0  0  0  0  0  0  0  0
  -11.3049   -0.5683  -23.6110 C   0  0  0  0  0  0  0  0  0  0  0  0
  -10.6673    0.5421  -24.3925 C   0  0  0  0  0  0  0  0  0  0  0  0
  -11.3312    1.4434  -24.8886 O   0  0  0  0  0  0  0  0  0  0  0  0
  -13.2483    0.1303  -24.1254 H   0  0  0  0  0  0  0  0  0  0  0  0
  -14.4120   -1.5038  -22.6011 H   0  0  0  0  0  0  0  0  0  0  0  0
  -10.6171   -2.9714  -21.3083 H   0  0  0  0  0  0  0  0  0  0  0  0
   -7.5291   -0.5326  -24.2566 H   0  0  0  0  0  0  0  0  0  0  0  0
   -8.8001   -1.4417  -25.1315 H   0  0  0  0  0  0  0  0  0  0  0  0
   -7.9252    1.3438  -25.8178 H   0  0  0  0  0  0  0  0  0  0  0  0
   -9.3202    2.3406  -25.3111 H   0  0  0  0  0  0  0  0  0  0  0  0
   -9.1770    2.9038  -22.8049 H   0  0  0  0  0  0  0  0  0  0  0  0
   -6.6250    4.1791  -22.2120 H   0  0  0  0  0  0  0  0  0  0  0  0
   -7.9752    3.8810  -21.0943 H   0  0  0  0  0  0  0  0  0  0  0  0
   -6.7588    2.5898  -21.4300 H   0  0  0  0  0  0  0  0  0  0  0  0
  1  2  1  0
  2  3  1  0
  3  4  2  0
  3  5  1  0
  5  6  1  0
  6  7  1  0
  8  7  1  6
  8  9  1  0
  9 10  2  0
  9 11  1  0
 11 12  1  0
 12 13  2  0
 13 14  1  0
 14 15  2  0
 15 16  1  0
 16 17  2  0
 17 18  1  0
 18 19  2  0
 19 20  1  0
 20 21  2  0
 20 22  1  0
 19 23  1  0
 18 24  1  0
 17 25  1  0
 15 26  1  0
 13 27  1  0
 11 28  1  0
 28 29  1  0
 29 30  1  0
 30 31  1  0
 31 32  1  0
 30 33  1  0
 30 34  1  0
 29 35  1  1
 28 36  1  0
 28 37  1  0
  8 38  1  0
 38 39  2  0
 39 40  1  0
 40 41  1  0
 40 42  2  0
 42 43  1  0
 43 44  2  0
 44 45  1  0
 45 46  2  0
 43 47  1  0
 42 48  1  0
 39 49  1  0
  7 50  1  0
  7 51  1  0
  5 52  1  0
  5 53  1  0
  2 54  1  0
  1 55  1  0
  1 56  1  0
  1 57  1  0
 45  6  1  0
 29  8  1  0
 44 38  1  0
 21 12  1  0
 21 16  1  0
M  END
>  <cnnaffinities>  (61) 
[6.01993]

>  <score>  (61) 
6.01993

>  <index>  (61) 
63

>  <Smiles>  (61) 
C(N(C(=O)C(N1C([C@@]2(C(=O)N(c3c(nc(c4c(c(c(c(c34)[H])[H])[H])[H])[H])[H])C([C@@]2(C(O[H])([H])[H])[H])([H])[H])c2c(c(Cl)c(c(c2C1=O)[H])[H])[H])([H])[H])([H])[H])[H])([H])([H])[H]

>  <h>  (61) 
<NA>

>  <Training>  (61) 
True

>  <Success>  (61) 
True

>  <enamine_searched>  (61) 
False

>  <enamine_id>  (61) 
nan

$$$$

     RDKit          3D

 55 60  0  0  0  0  0  0  0  0999 V2000
   -7.6113   -3.5485  -23.6821 C   0  0  0  0  0  0  0  0  0  0  0  0
   -8.4971   -2.9024  -22.6060 C   0  0  1  0  0  0  0  0  0  0  0  0
   -7.6773   -2.7775  -21.2951 C   0  0  0  0  0  0  0  0  0  0  0  0
   -7.3793   -1.3684  -21.2118 N   0  0  0  0  0  0  0  0  0  0  0  0
   -6.5675   -0.8360  -20.1831 C   0  0  0  0  0  0  0  0  0  0  0  0
   -6.8825   -1.0797  -18.8697 C   0  0  0  0  0  0  0  0  0  0  0  0
   -6.2146   -0.5643  -17.8117 N   0  0  0  0  0  0  0  0  0  0  0  0
   -5.1830    0.2023  -18.0774 C   0  0  0  0  0  0  0  0  0  0  0  0
   -4.7244    0.4977  -19.3922 C   0  0  0  0  0  0  0  0  0  0  0  0
   -3.5983    1.3342  -19.6151 C   0  0  0  0  0  0  0  0  0  0  0  0
   -3.1682    1.5968  -20.8852 C   0  0  0  0  0  0  0  0  0  0  0  0
   -3.8354    1.0249  -21.9918 C   0  0  0  0  0  0  0  0  0  0  0  0
   -4.9282    0.2172  -21.8063 C   0  0  0  0  0  0  0  0  0  0  0  0
   -5.4168   -0.0464  -20.4928 C   0  0  0  0  0  0  0  0  0  0  0  0
   -5.4411   -0.1968  -22.6683 H   0  0  0  0  0  0  0  0  0  0  0  0
   -3.4995    1.2576  -22.9994 H   0  0  0  0  0  0  0  0  0  0  0  0
   -2.3204    2.2554  -21.0503 H   0  0  0  0  0  0  0  0  0  0  0  0
   -3.1082    1.7711  -18.7506 H   0  0  0  0  0  0  0  0  0  0  0  0
   -4.6494    0.6304  -17.2291 H   0  0  0  0  0  0  0  0  0  0  0  0
   -7.7438   -1.6997  -18.6260 H   0  0  0  0  0  0  0  0  0  0  0  0
   -8.1566   -0.5598  -22.0228 C   0  0  0  0  0  0  0  0  0  0  0  0
   -8.1407    0.6328  -21.9893 O   0  0  0  0  0  0  0  0  0  0  0  0
   -9.0385   -1.4584  -22.9544 C   0  0  1  0  0  0  0  0  0  0  0  0
   -8.6381   -1.0226  -24.4499 C   0  0  0  0  0  0  0  0  0  0  0  0
   -9.2734    0.2134  -24.8971 N   0  0  0  0  0  0  0  0  0  0  0  0
   -8.4584    1.2100  -25.6230 C   0  0  0  0  0  0  0  0  0  0  0  0
   -7.8132    2.2155  -24.7155 C   0  0  0  0  0  0  0  0  0  0  0  0
   -6.5286    2.1134  -24.2540 N   0  0  0  0  0  0  0  0  0  0  0  0
   -6.3966    3.2070  -23.5302 C   0  0  0  0  0  0  0  0  0  0  0  0
   -7.5260    3.9359  -23.5717 N   0  0  0  0  0  0  0  0  0  0  0  0
   -8.4467    3.3030  -24.3396 N   0  0  0  0  0  0  0  0  0  0  0  0
   -7.7659    4.7757  -23.0609 H   0  0  0  0  0  0  0  0  0  0  0  0
   -5.5185    3.5339  -22.9886 H   0  0  0  0  0  0  0  0  0  0  0  0
   -7.6855    0.7048  -26.2134 H   0  0  0  0  0  0  0  0  0  0  0  0
   -9.1337    1.7274  -26.3001 H   0  0  0  0  0  0  0  0  0  0  0  0
  -10.6237    0.4792  -24.6502 C   0  0  0  0  0  0  0  0  0  0  0  0
  -11.1210    1.4666  -25.1477 O   0  0  0  0  0  0  0  0  0  0  0  0
  -11.3381   -0.5526  -23.6563 C   0  0  0  0  0  0  0  0  0  0  0  0
  -12.5697   -0.7432  -23.3964 C   0  0  0  0  0  0  0  0  0  0  0  0
  -12.6270   -1.5110  -21.9993 C   0  0  0  0  0  0  0  0  0  0  0  0
  -12.6260   -1.5128  -21.9987 C   0  0  0  0  0  0  0  0  0  0  0  0
  -12.8048   -3.4701  -21.1505 F   0  0  0  0  0  0  0  0  0  0  0  0
  -11.2567   -1.9484  -21.7237 C   0  0  0  0  0  0  0  0  0  0  0  0
  -10.5071   -1.2868  -22.7235 C   0  0  0  0  0  0  0  0  0  0  0  0
  -11.5819   -2.8471  -21.9681 H   0  0  0  0  0  0  0  0  0  0  0  0
  -13.4636   -0.8996  -21.5929 H   0  0  0  0  0  0  0  0  0  0  0  0
  -13.4500   -0.2438  -23.6826 H   0  0  0  0  0  0  0  0  0  0  0  0
   -8.9242   -1.8493  -25.1290 H   0  0  0  0  0  0  0  0  0  0  0  0
   -7.5374   -0.8931  -24.4941 H   0  0  0  0  0  0  0  0  0  0  0  0
   -8.2205   -3.1198  -20.4002 H   0  0  0  0  0  0  0  0  0  0  0  0
   -6.7376   -3.3518  -21.3268 H   0  0  0  0  0  0  0  0  0  0  0  0
   -9.3071   -3.6063  -22.4342 H   0  0  0  0  0  0  0  0  0  0  0  0
   -7.2989   -4.5445  -23.3529 H   0  0  0  0  0  0  0  0  0  0  0  0
   -6.7107   -2.9616  -23.8798 H   0  0  0  0  0  0  0  0  0  0  0  0
   -8.1615   -3.6744  -24.6120 H   0  0  0  0  0  0  0  0  0  0  0  0
  1  2  1  0
  2  3  1  0
  3  4  1  0
  4  5  1  0
  5  6  2  0
  6  7  1  0
  7  8  2  0
  8  9  1  0
  9 10  2  0
 10 11  1  0
 11 12  2  0
 12 13  1  0
 13 14  2  0
 13 15  1  0
 12 16  1  0
 11 17  1  0
 10 18  1  0
  8 19  1  0
  6 20  1  0
  4 21  1  0
 21 22  2  0
 21 23  1  0
 23 24  1  6
 24 25  1  0
 25 26  1  0
 26 27  1  0
 27 28  1  0
 28 29  2  0
 29 30  1  0
 30 31  1  0
 30 32  1  0
 29 33  1  0
 26 34  1  0
 26 35  1  0
 25 36  1  0
 36 37  2  0
 36 38  1  0
 38 39  2  0
 39 40  1  0
 40 41  2  0
 41 42  1  0
 41 43  1  0
 43 44  2  0
 43 45  1  0
 40 46  1  0
 39 47  1  0
 24 48  1  0
 24 49  1  0
  3 50  1  0
  3 51  1  0
  2 52  1  1
  1 53  1  0
  1 54  1  0
  1 55  1  0
 23  2  1  0
 31 27  2  0
 44 38  1  0
 14  5  1  0
 44 23  1  0
 14  9  1  0
M  END
>  <cnnaffinities>  (62) 
[6.24304]

>  <score>  (62) 
6.24304

>  <index>  (62) 
64

>  <Smiles>  (62) 
C([C@]1(C(N(c2c(nc(c3c(c(c(c(c23)[H])[H])[H])[H])[H])[H])C(=O)[C@]21C(N(C(c1nc(n(n1)[H])[H])([H])[H])C(=O)c1c(c(c(F)c(c21)[H])[H])[H])([H])[H])([H])[H])[H])([H])([H])[H]

>  <h>  (62) 
<NA>

>  <Training>  (62) 
True

>  <Success>  (62) 
True

>  <enamine_searched>  (62) 
False

>  <enamine_id>  (62) 
nan

$$$$

     RDKit          3D

 55 60  0  0  0  0  0  0  0  0999 V2000
   -7.6536   -3.5661  -23.7060 C   0  0  0  0  0  0  0  0  0  0  0  0
   -8.4917   -2.9044  -22.6010 C   0  0  1  0  0  0  0  0  0  0  0  0
   -7.6784   -2.7768  -21.2970 C   0  0  0  0  0  0  0  0  0  0  0  0
   -7.3763   -1.3639  -21.2196 N   0  0  0  0  0  0  0  0  0  0  0  0
   -6.5794   -0.8250  -20.1818 C   0  0  0  0  0  0  0  0  0  0  0  0
   -6.8870   -1.0643  -18.8558 C   0  0  0  0  0  0  0  0  0  0  0  0
   -6.2061   -0.5515  -17.8028 N   0  0  0  0  0  0  0  0  0  0  0  0
   -5.1722    0.2129  -18.0789 C   0  0  0  0  0  0  0  0  0  0  0  0
   -4.7274    0.5215  -19.3981 C   0  0  0  0  0  0  0  0  0  0  0  0
   -3.6005    1.3490  -19.6312 C   0  0  0  0  0  0  0  0  0  0  0  0
   -3.1836    1.6161  -20.9083 C   0  0  0  0  0  0  0  0  0  0  0  0
   -3.8659    1.0483  -22.0070 C   0  0  0  0  0  0  0  0  0  0  0  0
   -4.9641    0.2460  -21.8057 C   0  0  0  0  0  0  0  0  0  0  0  0
   -5.4359   -0.0179  -20.4885 C   0  0  0  0  0  0  0  0  0  0  0  0
   -5.4955   -0.1761  -22.6540 H   0  0  0  0  0  0  0  0  0  0  0  0
   -3.5243    1.2632  -23.0140 H   0  0  0  0  0  0  0  0  0  0  0  0
   -2.3344    2.2642  -21.0761 H   0  0  0  0  0  0  0  0  0  0  0  0
   -3.0926    1.7747  -18.7728 H   0  0  0  0  0  0  0  0  0  0  0  0
   -4.6322    0.6197  -17.2337 H   0  0  0  0  0  0  0  0  0  0  0  0
   -7.7498   -1.6815  -18.6064 H   0  0  0  0  0  0  0  0  0  0  0  0
   -8.1399   -0.5744  -22.0406 C   0  0  0  0  0  0  0  0  0  0  0  0
   -8.1028    0.6384  -22.0293 O   0  0  0  0  0  0  0  0  0  0  0  0
   -9.0476   -1.4511  -22.9354 C   0  0  1  0  0  0  0  0  0  0  0  0
   -8.7683   -1.0481  -24.4631 C   0  0  0  0  0  0  0  0  0  0  0  0
   -9.3414    0.2512  -24.8596 N   0  0  0  0  0  0  0  0  0  0  0  0
   -8.5734    1.2063  -25.6844 C   0  0  0  0  0  0  0  0  0  0  0  0
   -7.7713    2.1311  -24.8360 C   0  0  0  0  0  0  0  0  0  0  0  0
   -6.4606    2.0681  -24.5057 C   0  0  0  0  0  0  0  0  0  0  0  0
   -6.1723    3.1194  -23.6881 O   0  0  0  0  0  0  0  0  0  0  0  0
   -7.3367    3.7654  -23.5507 C   0  0  0  0  0  0  0  0  0  0  0  0
   -8.3202    3.2437  -24.2065 N   0  0  0  0  0  0  0  0  0  0  0  0
   -7.3300    4.6273  -22.8957 H   0  0  0  0  0  0  0  0  0  0  0  0
   -5.6393    1.3949  -24.7209 H   0  0  0  0  0  0  0  0  0  0  0  0
   -7.9740    0.6256  -26.3609 H   0  0  0  0  0  0  0  0  0  0  0  0
   -9.3504    1.7636  -26.2221 H   0  0  0  0  0  0  0  0  0  0  0  0
  -10.6081    0.6089  -24.5279 C   0  0  0  0  0  0  0  0  0  0  0  0
  -11.1536    1.6277  -24.9248 O   0  0  0  0  0  0  0  0  0  0  0  0
  -11.3120   -0.3749  -23.5652 C   0  0  0  0  0  0  0  0  0  0  0  0
  -12.4999   -0.5920  -23.1408 C   0  0  0  0  0  0  0  0  0  0  0  0
  -12.6197   -1.5482  -21.8346 C   0  0  0  0  0  0  0  0  0  0  0  0
  -12.6188   -1.5494  -21.8341 C   0  0  0  0  0  0  0  0  0  0  0  0
  -13.0292   -3.2625  -20.8216 F   0  0  0  0  0  0  0  0  0  0  0  0
  -11.1830   -1.8410  -21.5513 C   0  0  0  0  0  0  0  0  0  0  0  0
  -10.4578   -1.2733  -22.5891 C   0  0  0  0  0  0  0  0  0  0  0  0
  -11.3104   -2.7322  -21.6016 H   0  0  0  0  0  0  0  0  0  0  0  0
  -13.6129   -0.9933  -21.5443 H   0  0  0  0  0  0  0  0  0  0  0  0
  -13.3347    0.0733  -23.5190 H   0  0  0  0  0  0  0  0  0  0  0  0
   -9.2211   -1.8314  -25.1000 H   0  0  0  0  0  0  0  0  0  0  0  0
   -7.7274   -0.9952  -24.6788 H   0  0  0  0  0  0  0  0  0  0  0  0
   -8.2319   -3.1262  -20.4062 H   0  0  0  0  0  0  0  0  0  0  0  0
   -6.7487   -3.3660  -21.3387 H   0  0  0  0  0  0  0  0  0  0  0  0
   -9.3312   -3.5727  -22.4539 H   0  0  0  0  0  0  0  0  0  0  0  0
   -7.3335   -4.5717  -23.3879 H   0  0  0  0  0  0  0  0  0  0  0  0
   -6.7500   -2.9751  -23.9238 H   0  0  0  0  0  0  0  0  0  0  0  0
   -8.2205   -3.6812  -24.6424 H   0  0  0  0  0  0  0  0  0  0  0  0
  1  2  1  0
  2  3  1  0
  3  4  1  0
  4  5  1  0
  5  6  2  0
  6  7  1  0
  7  8  2  0
  8  9  1  0
  9 10  2  0
 10 11  1  0
 11 12  2  0
 12 13  1  0
 13 14  2  0
 13 15  1  0
 12 16  1  0
 11 17  1  0
 10 18  1  0
  8 19  1  0
  6 20  1  0
  4 21  1  0
 21 22  2  0
 21 23  1  0
 23 24  1  6
 24 25  1  0
 25 26  1  0
 26 27  1  0
 27 28  2  0
 28 29  1  0
 29 30  1  0
 30 31  2  0
 30 32  1  0
 28 33  1  0
 26 34  1  0
 26 35  1  0
 25 36  1  0
 36 37  2  0
 36 38  1  0
 38 39  2  0
 39 40  1  0
 40 41  2  0
 41 42  1  0
 41 43  1  0
 43 44  2  0
 43 45  1  0
 40 46  1  0
 39 47  1  0
 24 48  1  0
 24 49  1  0
  3 50  1  0
  3 51  1  0
  2 52  1  1
  1 53  1  0
  1 54  1  0
  1 55  1  0
 23  2  1  0
 31 27  1  0
 44 38  1  0
 14  5  1  0
 44 23  1  0
 14  9  1  0
M  END
>  <cnnaffinities>  (63) 
[6.24548]

>  <score>  (63) 
6.24548

>  <index>  (63) 
65

>  <Smiles>  (63) 
C([C@]1(C(N(c2c(nc(c3c(c(c(c(c23)[H])[H])[H])[H])[H])[H])C(=O)[C@]21C(N(C(c1c(oc(n1)[H])[H])([H])[H])C(=O)c1c(c(c(F)c(c21)[H])[H])[H])([H])[H])([H])[H])[H])([H])([H])[H]

>  <h>  (63) 
<NA>

>  <Training>  (63) 
True

>  <Success>  (63) 
True

>  <enamine_searched>  (63) 
False

>  <enamine_id>  (63) 
nan

$$$$

     RDKit          3D

 44 47  0  0  0  0  0  0  0  0999 V2000
   -7.8634   -0.6307  -24.9374 C   0  0  0  0  0  0  0  0  0  0  0  0
   -8.3878   -2.0412  -25.1100 C   0  0  0  0  0  0  0  0  0  0  0  0
   -8.3379   -2.8837  -23.8285 C   0  0  1  0  0  0  0  0  0  0  0  0
   -8.8944   -4.2625  -24.0844 C   0  0  0  0  0  0  0  0  0  0  0  0
  -10.2749   -4.5698  -24.2960 C   0  0  0  0  0  0  0  0  0  0  0  0
  -10.4747   -5.8899  -24.5628 C   0  0  0  0  0  0  0  0  0  0  0  0
   -8.9961   -6.7802  -24.5535 S   0  0  0  0  0  0  0  0  0  0  0  0
   -8.0872   -5.3547  -24.1807 C   0  0  0  0  0  0  0  0  0  0  0  0
   -6.6067   -5.3361  -23.9379 C   0  0  0  0  0  0  0  0  0  0  0  0
   -6.0930   -3.8953  -23.9602 C   0  0  0  0  0  0  0  0  0  0  0  0
   -6.9912   -2.9806  -23.2494 N   0  0  0  0  0  0  0  0  0  0  0  0
   -6.6860   -2.6700  -21.9322 C   0  0  0  0  0  0  0  0  0  0  0  0
   -5.8419   -3.2872  -21.3091 O   0  0  0  0  0  0  0  0  0  0  0  0
   -7.4053   -1.4664  -21.2753 C   0  0  0  0  0  0  0  0  0  0  0  0
   -6.5815   -0.8269  -20.1788 C   0  0  0  0  0  0  0  0  0  0  0  0
   -6.8727   -1.0456  -18.8562 C   0  0  0  0  0  0  0  0  0  0  0  0
   -6.1901   -0.5395  -17.7925 N   0  0  0  0  0  0  0  0  0  0  0  0
   -5.1578    0.2235  -18.0621 C   0  0  0  0  0  0  0  0  0  0  0  0
   -4.7211    0.5313  -19.3811 C   0  0  0  0  0  0  0  0  0  0  0  0
   -3.5907    1.3572  -19.6223 C   0  0  0  0  0  0  0  0  0  0  0  0
   -3.1927    1.6371  -20.9022 C   0  0  0  0  0  0  0  0  0  0  0  0
   -3.9071    1.0960  -21.9942 C   0  0  0  0  0  0  0  0  0  0  0  0
   -5.0034    0.2945  -21.7861 C   0  0  0  0  0  0  0  0  0  0  0  0
   -5.4471   -0.0077  -20.4703 C   0  0  0  0  0  0  0  0  0  0  0  0
   -5.5352   -0.1123  -22.6406 H   0  0  0  0  0  0  0  0  0  0  0  0
   -3.5857    1.3226  -23.0054 H   0  0  0  0  0  0  0  0  0  0  0  0
   -2.3334    2.2759  -21.0879 H   0  0  0  0  0  0  0  0  0  0  0  0
   -3.0544    1.7757  -18.7739 H   0  0  0  0  0  0  0  0  0  0  0  0
   -4.6000    0.6288  -17.2162 H   0  0  0  0  0  0  0  0  0  0  0  0
   -7.7207   -1.6717  -18.5861 H   0  0  0  0  0  0  0  0  0  0  0  0
   -7.6868   -0.7142  -22.0254 H   0  0  0  0  0  0  0  0  0  0  0  0
   -8.3432   -1.8355  -20.8397 H   0  0  0  0  0  0  0  0  0  0  0  0
   -6.0008   -3.5650  -25.0009 H   0  0  0  0  0  0  0  0  0  0  0  0
   -5.0969   -3.8291  -23.5195 H   0  0  0  0  0  0  0  0  0  0  0  0
   -6.3962   -5.7708  -22.9547 H   0  0  0  0  0  0  0  0  0  0  0  0
   -6.0676   -5.9547  -24.6673 H   0  0  0  0  0  0  0  0  0  0  0  0
  -11.4129   -6.3998  -24.7336 H   0  0  0  0  0  0  0  0  0  0  0  0
  -11.0772   -3.8368  -24.2505 H   0  0  0  0  0  0  0  0  0  0  0  0
   -8.9901   -2.4013  -23.0921 H   0  0  0  0  0  0  0  0  0  0  0  0
   -7.8387   -2.5689  -25.8934 H   0  0  0  0  0  0  0  0  0  0  0  0
   -9.4259   -2.0167  -25.4594 H   0  0  0  0  0  0  0  0  0  0  0  0
   -7.9250   -0.0750  -25.8751 H   0  0  0  0  0  0  0  0  0  0  0  0
   -6.8183   -0.6402  -24.6158 H   0  0  0  0  0  0  0  0  0  0  0  0
   -8.4461   -0.0849  -24.1892 H   0  0  0  0  0  0  0  0  0  0  0  0
  1  2  1  0
  2  3  1  0
  3  4  1  0
  4  5  1  0
  5  6  2  0
  6  7  1  0
  7  8  1  0
  8  9  1  0
  9 10  1  0
 10 11  1  0
 11 12  1  0
 12 13  2  0
 12 14  1  0
 14 15  1  0
 15 16  2  0
 16 17  1  0
 17 18  2  0
 18 19  1  0
 19 20  2  0
 20 21  1  0
 21 22  2  0
 22 23  1  0
 23 24  2  0
 23 25  1  0
 22 26  1  0
 21 27  1  0
 20 28  1  0
 18 29  1  0
 16 30  1  0
 14 31  1  0
 14 32  1  0
 10 33  1  0
 10 34  1  0
  9 35  1  0
  9 36  1  0
  6 37  1  0
  5 38  1  0
  3 39  1  1
  2 40  1  0
  2 41  1  0
  1 42  1  0
  1 43  1  0
  1 44  1  0
 11  3  1  0
 24 15  1  0
  8  4  2  0
 24 19  1  0
M  END
>  <cnnaffinities>  (64) 
[5.4762, 5.41714]

>  <score>  (64) 
5.4762

>  <index>  (64) 
66

>  <Smiles>  (64) 
C(C([C@]1(c2c(c(sc2C(C(N1C(=O)C(c1c(nc(c2c(c(c(c(c12)[H])[H])[H])[H])[H])[H])([H])[H])([H])[H])([H])[H])[H])[H])[H])([H])[H])([H])([H])[H]

>  <h>  (64) 
<NA>

>  <Training>  (64) 
True

>  <Success>  (64) 
True

>  <enamine_searched>  (64) 
False

>  <enamine_id>  (64) 
nan

$$$$

     RDKit          3D

 58 63  0  0  0  0  0  0  0  0999 V2000
   -9.3782    1.1335  -30.7332 C   0  0  0  0  0  0  0  0  0  0  0  0
   -8.9721    0.8937  -29.3065 C   0  0  0  0  0  0  0  0  0  0  0  0
   -9.3490    1.5975  -28.1175 C   0  0  0  0  0  0  0  0  0  0  0  0
   -8.7180    0.9235  -27.1224 C   0  0  0  0  0  0  0  0  0  0  0  0
   -8.6184    1.1246  -25.6354 C   0  0  0  0  0  0  0  0  0  0  0  0
   -9.3190    0.1418  -24.8280 N   0  0  0  0  0  0  0  0  0  0  0  0
   -8.6970   -1.1316  -24.5083 C   0  0  0  0  0  0  0  0  0  0  0  0
   -8.9101   -1.5505  -23.0298 C   0  0  2  0  0  0  0  0  0  0  0  0
   -8.1246   -0.6190  -22.0847 C   0  0  0  0  0  0  0  0  0  0  0  0
   -8.1191    0.5893  -22.1061 O   0  0  0  0  0  0  0  0  0  0  0  0
   -7.3716   -1.3867  -21.2209 N   0  0  0  0  0  0  0  0  0  0  0  0
   -6.5849   -0.8256  -20.1880 C   0  0  0  0  0  0  0  0  0  0  0  0
   -6.8883   -1.0755  -18.8723 C   0  0  0  0  0  0  0  0  0  0  0  0
   -6.2150   -0.5627  -17.8122 N   0  0  0  0  0  0  0  0  0  0  0  0
   -5.1849    0.2079  -18.0699 C   0  0  0  0  0  0  0  0  0  0  0  0
   -4.7323    0.5130  -19.3855 C   0  0  0  0  0  0  0  0  0  0  0  0
   -3.6005    1.3427  -19.6080 C   0  0  0  0  0  0  0  0  0  0  0  0
   -3.1752    1.6131  -20.8799 C   0  0  0  0  0  0  0  0  0  0  0  0
   -3.8530    1.0565  -21.9873 C   0  0  0  0  0  0  0  0  0  0  0  0
   -4.9475    0.2501  -21.7976 C   0  0  0  0  0  0  0  0  0  0  0  0
   -5.4341   -0.0238  -20.4868 C   0  0  0  0  0  0  0  0  0  0  0  0
   -5.4631   -0.1719  -22.6533 H   0  0  0  0  0  0  0  0  0  0  0  0
   -3.5116    1.2787  -22.9949 H   0  0  0  0  0  0  0  0  0  0  0  0
   -2.3196    2.2627  -21.0471 H   0  0  0  0  0  0  0  0  0  0  0  0
   -3.0969    1.7690  -18.7444 H   0  0  0  0  0  0  0  0  0  0  0  0
   -4.6410    0.6236  -17.2192 H   0  0  0  0  0  0  0  0  0  0  0  0
   -7.7461   -1.6972  -18.6184 H   0  0  0  0  0  0  0  0  0  0  0  0
   -7.6290   -2.8043  -21.3237 C   0  0  0  0  0  0  0  0  0  0  0  0
   -8.3416   -2.9687  -22.6857 C   0  0  2  0  0  0  0  0  0  0  0  0
   -7.4549   -3.6162  -23.7518 C   0  0  0  0  0  0  0  0  0  0  0  0
   -6.5606   -3.0266  -23.9701 H   0  0  0  0  0  0  0  0  0  0  0  0
   -7.1375   -4.6135  -23.4297 H   0  0  0  0  0  0  0  0  0  0  0  0
   -8.0097   -3.7489  -24.6850 H   0  0  0  0  0  0  0  0  0  0  0  0
   -9.1771   -3.6607  -22.5662 H   0  0  0  0  0  0  0  0  0  0  0  0
   -8.2601   -3.1502  -20.4932 H   0  0  0  0  0  0  0  0  0  0  0  0
   -6.6871   -3.3580  -21.2631 H   0  0  0  0  0  0  0  0  0  0  0  0
  -10.4076   -1.4517  -22.7694 C   0  0  0  0  0  0  0  0  0  0  0  0
  -11.0140   -2.2539  -21.7957 C   0  0  0  0  0  0  0  0  0  0  0  0
  -12.3904   -2.2634  -21.6931 C   0  0  0  0  0  0  0  0  0  0  0  0
  -12.9771   -3.0922  -20.8125 F   0  0  0  0  0  0  0  0  0  0  0  0
  -13.2080   -1.4669  -22.4805 C   0  0  0  0  0  0  0  0  0  0  0  0
  -12.6022   -0.6110  -23.3817 C   0  0  0  0  0  0  0  0  0  0  0  0
  -11.2145   -0.5793  -23.5117 C   0  0  0  0  0  0  0  0  0  0  0  0
  -10.6139    0.4027  -24.4720 C   0  0  0  0  0  0  0  0  0  0  0  0
  -11.2312    1.3675  -24.9014 O   0  0  0  0  0  0  0  0  0  0  0  0
  -13.1896    0.0676  -23.9895 H   0  0  0  0  0  0  0  0  0  0  0  0
  -14.2856   -1.5374  -22.3618 H   0  0  0  0  0  0  0  0  0  0  0  0
  -10.4384   -2.8794  -21.1209 H   0  0  0  0  0  0  0  0  0  0  0  0
   -9.1407   -1.9098  -25.1417 H   0  0  0  0  0  0  0  0  0  0  0  0
   -7.6358   -1.0633  -24.7505 H   0  0  0  0  0  0  0  0  0  0  0  0
   -7.5593    1.1236  -25.3442 H   0  0  0  0  0  0  0  0  0  0  0  0
   -9.0510    2.1006  -25.4088 H   0  0  0  0  0  0  0  0  0  0  0  0
   -8.0241   -0.0955  -27.6429 O   0  0  0  0  0  0  0  0  0  0  0  0
   -8.1802   -0.1096  -29.0154 N   0  0  0  0  0  0  0  0  0  0  0  0
  -10.0378    2.4205  -28.0078 H   0  0  0  0  0  0  0  0  0  0  0  0
  -10.4675    1.1810  -30.8491 H   0  0  0  0  0  0  0  0  0  0  0  0
   -8.9593    2.0728  -31.1062 H   0  0  0  0  0  0  0  0  0  0  0  0
   -9.0157    0.3236  -31.3715 H   0  0  0  0  0  0  0  0  0  0  0  0
  1  2  1  0
  2  3  1  0
  3  4  2  0
  4  5  1  0
  5  6  1  0
  6  7  1  0
  8  7  1  6
  8  9  1  0
  9 10  2  0
  9 11  1  0
 11 12  1  0
 12 13  2  0
 13 14  1  0
 14 15  2  0
 15 16  1  0
 16 17  2  0
 17 18  1  0
 18 19  2  0
 19 20  1  0
 20 21  2  0
 20 22  1  0
 19 23  1  0
 18 24  1  0
 17 25  1  0
 15 26  1  0
 13 27  1  0
 11 28  1  0
 28 29  1  0
 29 30  1  0
 30 31  1  0
 30 32  1  0
 30 33  1  0
 29 34  1  1
 28 35  1  0
 28 36  1  0
  8 37  1  0
 37 38  2  0
 38 39  1  0
 39 40  1  0
 39 41  2  0
 41 42  1  0
 42 43  2  0
 43 44  1  0
 44 45  2  0
 42 46  1  0
 41 47  1  0
 38 48  1  0
  7 49  1  0
  7 50  1  0
  5 51  1  0
  5 52  1  0
  4 53  1  0
 53 54  1  0
  3 55  1  0
  1 56  1  0
  1 57  1  0
  1 58  1  0
 54  2  2  0
 44  6  1  0
 29  8  1  0
 43 37  1  0
 21 12  1  0
 21 16  1  0
M  END
>  <cnnaffinities>  (65) 
[6.04989]

>  <score>  (65) 
6.04989

>  <index>  (65) 
67

>  <Smiles>  (65) 
C(c1c(c(C(N2C([C@@]3(C(=O)N(c4c(nc(c5c(c(c(c(c45)[H])[H])[H])[H])[H])[H])C([C@@]3(C([H])([H])[H])[H])([H])[H])c3c(c(F)c(c(c3C2=O)[H])[H])[H])([H])[H])([H])[H])on1)[H])([H])([H])[H]

>  <h>  (65) 
<NA>

>  <Training>  (65) 
True

>  <Success>  (65) 
True

>  <enamine_searched>  (65) 
False

>  <enamine_id>  (65) 
nan

$$$$

     RDKit          3D

 65 70  0  0  0  0  0  0  0  0999 V2000
   -9.2289    0.0813  -20.8340 O   0  0  0  0  0  0  0  0  0  0  0  0
   -8.4679   -0.3542  -21.6885 C   0  0  0  0  0  0  0  0  0  0  0  0
   -7.4457   -1.4154  -21.2757 C   0  0  0  0  0  0  0  0  0  0  0  0
   -6.5645   -0.8531  -20.1803 C   0  0  0  0  0  0  0  0  0  0  0  0
   -6.8898   -1.0448  -18.8620 C   0  0  0  0  0  0  0  0  0  0  0  0
   -6.2114   -0.5333  -17.8010 N   0  0  0  0  0  0  0  0  0  0  0  0
   -5.1713    0.2156  -18.0719 C   0  0  0  0  0  0  0  0  0  0  0  0
   -4.7210    0.5172  -19.3867 C   0  0  0  0  0  0  0  0  0  0  0  0
   -3.5980    1.3500  -19.6231 C   0  0  0  0  0  0  0  0  0  0  0  0
   -3.1989    1.6355  -20.9016 C   0  0  0  0  0  0  0  0  0  0  0  0
   -3.9113    1.1015  -21.9966 C   0  0  0  0  0  0  0  0  0  0  0  0
   -5.0040    0.2946  -21.7930 C   0  0  0  0  0  0  0  0  0  0  0  0
   -5.4425   -0.0255  -20.4788 C   0  0  0  0  0  0  0  0  0  0  0  0
   -5.5515   -0.0712  -22.6573 H   0  0  0  0  0  0  0  0  0  0  0  0
   -3.5916    1.3385  -23.0089 H   0  0  0  0  0  0  0  0  0  0  0  0
   -2.3441    2.2809  -21.0781 H   0  0  0  0  0  0  0  0  0  0  0  0
   -3.0750    1.7689  -18.7681 H   0  0  0  0  0  0  0  0  0  0  0  0
   -4.6219    0.6300  -17.2234 H   0  0  0  0  0  0  0  0  0  0  0  0
   -7.7611   -1.6464  -18.6061 H   0  0  0  0  0  0  0  0  0  0  0  0
   -6.8454   -1.7605  -22.1203 H   0  0  0  0  0  0  0  0  0  0  0  0
   -8.0143   -2.2658  -20.8784 H   0  0  0  0  0  0  0  0  0  0  0  0
   -8.4441    0.1501  -22.9798 N   0  0  0  0  0  0  0  0  0  0  0  0
   -8.2473   -0.7049  -24.1508 C   0  0  0  0  0  0  0  0  0  0  0  0
   -9.3783   -1.7018  -24.3381 C   0  0  0  0  0  0  0  0  0  0  0  0
   -9.2506   -3.0087  -23.8668 C   0  0  0  0  0  0  0  0  0  0  0  0
  -10.3066   -3.9071  -23.9741 C   0  0  0  0  0  0  0  0  0  0  0  0
  -11.5127   -3.5164  -24.5399 C   0  0  0  0  0  0  0  0  0  0  0  0
  -11.6427   -2.2102  -24.9957 C   0  0  0  0  0  0  0  0  0  0  0  0
  -13.1777   -1.7030  -25.6541 Cl  0  0  0  0  0  0  0  0  0  0  0  0
  -10.5861   -1.3091  -24.9204 C   0  0  0  0  0  0  0  0  0  0  0  0
  -10.7255   -0.3104  -25.3337 H   0  0  0  0  0  0  0  0  0  0  0  0
  -12.3416   -4.2107  -24.6323 H   0  0  0  0  0  0  0  0  0  0  0  0
  -10.1925   -4.9258  -23.6107 H   0  0  0  0  0  0  0  0  0  0  0  0
   -8.3144   -3.3353  -23.4166 H   0  0  0  0  0  0  0  0  0  0  0  0
   -8.1754   -0.0604  -25.0296 H   0  0  0  0  0  0  0  0  0  0  0  0
   -7.2910   -1.2351  -24.0631 H   0  0  0  0  0  0  0  0  0  0  0  0
   -8.8298    1.5521  -23.1136 C   0  0  2  0  0  0  0  0  0  0  0  0
  -10.3040    1.9155  -22.8093 C   0  0  0  0  0  0  0  0  0  0  0  0
  -10.4516    3.3210  -23.4426 C   0  0  0  0  0  0  0  0  0  0  0  0
   -9.0667    3.5903  -24.0223 C   0  0  2  0  0  0  0  0  0  0  0  0
   -8.6200    2.2094  -24.4878 C   0  0  0  0  0  0  0  0  0  0  0  0
   -7.5721    2.1691  -24.8121 H   0  0  0  0  0  0  0  0  0  0  0  0
   -9.2758    1.8105  -25.2695 H   0  0  0  0  0  0  0  0  0  0  0  0
   -8.1049    3.8434  -22.8366 N   0  0  2  0  0  4  0  0  0  0  0  0
   -6.8261    4.4558  -23.3113 C   0  0  0  0  0  0  0  0  0  0  0  0
   -6.9513    5.9568  -23.2304 C   0  0  0  0  0  0  0  0  0  0  0  0
   -5.7733    6.8768  -23.5265 C   0  0  0  0  0  0  0  0  0  0  0  0
   -6.0083    7.6113  -22.3094 O   0  0  0  0  0  0  0  0  0  0  0  0
   -6.8123    6.5237  -21.8211 C   0  0  0  0  0  0  0  0  0  0  0  0
   -6.2336    5.8543  -21.1641 H   0  0  0  0  0  0  0  0  0  0  0  0
   -7.7404    6.8187  -21.3258 H   0  0  0  0  0  0  0  0  0  0  0  0
   -5.8326    7.5247  -24.4064 H   0  0  0  0  0  0  0  0  0  0  0  0
   -4.8124    6.3409  -23.4961 H   0  0  0  0  0  0  0  0  0  0  0  0
   -7.8754    6.3146  -23.6904 H   0  0  0  0  0  0  0  0  0  0  0  0
   -6.6010    4.0987  -24.3173 H   0  0  0  0  0  0  0  0  0  0  0  0
   -5.9917    4.1345  -22.6836 H   0  0  0  0  0  0  0  0  0  0  0  0
   -7.9702    2.4766  -22.2115 C   0  0  0  0  0  0  0  0  0  0  0  0
   -8.3409    2.5090  -21.1869 H   0  0  0  0  0  0  0  0  0  0  0  0
   -6.9209    2.1713  -22.1931 H   0  0  0  0  0  0  0  0  0  0  0  0
   -8.5035    4.5024  -22.1461 H   0  0  0  0  0  0  0  0  0  0  0  0
   -9.0117    4.4063  -24.7389 H   0  0  0  0  0  0  0  0  0  0  0  0
  -10.7380    4.0939  -22.7217 H   0  0  0  0  0  0  0  0  0  0  0  0
  -11.1927    3.3182  -24.2452 H   0  0  0  0  0  0  0  0  0  0  0  0
  -10.5054    1.9087  -21.7387 H   0  0  0  0  0  0  0  0  0  0  0  0
  -10.9608    1.1837  -23.2885 H   0  0  0  0  0  0  0  0  0  0  0  0
  1  2  2  0
  2  3  1  0
  3  4  1  0
  4  5  2  0
  5  6  1  0
  6  7  2  0
  7  8  1  0
  8  9  2  0
  9 10  1  0
 10 11  2  0
 11 12  1  0
 12 13  2  0
 12 14  1  0
 11 15  1  0
 10 16  1  0
  9 17  1  0
  7 18  1  0
  5 19  1  0
  3 20  1  0
  3 21  1  0
  2 22  1  0
 22 23  1  0
 23 24  1  0
 24 25  2  0
 25 26  1  0
 26 27  2  0
 27 28  1  0
 28 29  1  0
 28 30  2  0
 30 31  1  0
 27 32  1  0
 26 33  1  0
 25 34  1  0
 23 35  1  0
 23 36  1  0
 37 22  1  6
 37 38  1  0
 38 39  1  0
 39 40  1  0
 40 41  1  0
 41 42  1  0
 41 43  1  0
 40 44  1  0
 44 45  1  0
 45 46  1  0
 46 47  1  0
 47 48  1  0
 48 49  1  0
 49 50  1  0
 49 51  1  0
 47 52  1  0
 47 53  1  0
 46 54  1  0
 45 55  1  0
 45 56  1  0
 44 57  1  0
 57 58  1  0
 57 59  1  0
 44 60  1  1
 40 61  1  6
 39 62  1  0
 39 63  1  0
 38 64  1  0
 38 65  1  0
 13  4  1  0
 30 24  1  0
 41 37  1  0
 49 46  1  0
 13  8  1  0
 57 37  1  0
M  CHG  1  44   1
M  END
>  <cnnaffinities>  (66) 
[6.03082]

>  <score>  (66) 
6.03082

>  <index>  (66) 
68

>  <Smiles>  (66) 
O=C(C(c1c(nc(c2c(c(c(c(c12)[H])[H])[H])[H])[H])[H])([H])[H])N(C(c1c(c(c(c(Cl)c1[H])[H])[H])[H])([H])[H])[C@]12C(C([C@](C1([H])[H])([N@+](C(C1(C(OC1([H])[H])([H])[H])[H])([H])[H])(C2([H])[H])[H])[H])([H])[H])([H])[H]

>  <h>  (66) 
<NA>

>  <Training>  (66) 
True

>  <Success>  (66) 
True

>  <enamine_searched>  (66) 
False

>  <enamine_id>  (66) 
nan

$$$$

     RDKit          3D

 63 67  0  0  0  0  0  0  0  0999 V2000
  -15.4912   -5.1858  -24.7799 C   0  0  0  0  0  0  0  0  0  0  0  0
  -14.5527   -4.5765  -24.0609 C   0  0  0  0  0  0  0  0  0  0  0  0
  -13.5439   -3.6610  -24.6807 C   0  0  0  0  0  0  0  0  0  0  0  0
  -13.5636   -3.3706  -25.8617 O   0  0  0  0  0  0  0  0  0  0  0  0
  -12.5782   -3.1699  -23.7978 N   0  0  0  0  0  0  0  0  0  0  0  0
  -12.9949   -2.8043  -22.4511 C   0  0  0  0  0  0  0  0  0  0  0  0
  -12.8338   -1.3133  -22.3187 C   0  0  0  0  0  0  0  0  0  0  0  0
  -11.3526   -1.0204  -22.3648 C   0  0  0  0  0  0  0  0  0  0  0  0
  -10.6662   -1.6632  -23.5494 C   0  0  0  0  0  0  0  0  0  0  0  0
  -11.3225   -2.6902  -24.2582 C   0  0  0  0  0  0  0  0  0  0  0  0
  -10.7159   -3.2597  -25.3865 C   0  0  0  0  0  0  0  0  0  0  0  0
   -9.4617   -2.8357  -25.7889 C   0  0  0  0  0  0  0  0  0  0  0  0
   -8.7865   -1.8385  -25.0881 C   0  0  0  0  0  0  0  0  0  0  0  0
   -9.3851   -1.2867  -23.9606 C   0  0  0  0  0  0  0  0  0  0  0  0
   -8.5856   -0.1851  -23.2174 N   0  0  1  0  0  4  0  0  0  0  0  0
   -8.9550    1.2853  -23.6111 C   0  0  0  0  0  0  0  0  0  0  0  0
   -7.8047    2.2212  -23.2946 C   0  0  0  0  0  0  0  0  0  0  0  0
   -7.7857    2.8793  -22.0650 C   0  0  0  0  0  0  0  0  0  0  0  0
   -6.8572    3.8715  -21.8091 C   0  0  0  0  0  0  0  0  0  0  0  0
   -5.8531    4.1458  -22.7309 C   0  0  0  0  0  0  0  0  0  0  0  0
   -5.7922    3.3941  -23.8966 C   0  0  0  0  0  0  0  0  0  0  0  0
   -4.4288    3.6020  -24.9701 Cl  0  0  0  0  0  0  0  0  0  0  0  0
   -6.7718    2.4575  -24.2041 C   0  0  0  0  0  0  0  0  0  0  0  0
   -6.7399    1.9303  -25.1500 H   0  0  0  0  0  0  0  0  0  0  0  0
   -5.1379    4.9397  -22.5583 H   0  0  0  0  0  0  0  0  0  0  0  0
   -6.9252    4.4408  -20.8858 H   0  0  0  0  0  0  0  0  0  0  0  0
   -8.4916    2.5619  -21.3071 H   0  0  0  0  0  0  0  0  0  0  0  0
   -9.2418    1.2831  -24.6647 H   0  0  0  0  0  0  0  0  0  0  0  0
   -9.8277    1.5503  -23.0099 H   0  0  0  0  0  0  0  0  0  0  0  0
   -8.4689   -0.3135  -21.7401 C   0  0  0  0  0  0  0  0  0  0  0  0
   -9.1590    0.3425  -21.0005 O   0  0  0  0  0  0  0  0  0  0  0  0
   -7.4842   -1.3690  -21.2485 C   0  0  0  0  0  0  0  0  0  0  0  0
   -6.5941   -0.8164  -20.1629 C   0  0  0  0  0  0  0  0  0  0  0  0
   -6.8751   -1.0505  -18.8439 C   0  0  0  0  0  0  0  0  0  0  0  0
   -6.1806   -0.5469  -17.7882 N   0  0  0  0  0  0  0  0  0  0  0  0
   -5.1620    0.2283  -18.0695 C   0  0  0  0  0  0  0  0  0  0  0  0
   -4.7397    0.5484  -19.3885 C   0  0  0  0  0  0  0  0  0  0  0  0
   -3.6175    1.3802  -19.6354 C   0  0  0  0  0  0  0  0  0  0  0  0
   -3.2321    1.6668  -20.9143 C   0  0  0  0  0  0  0  0  0  0  0  0
   -3.9514    1.1315  -22.0070 C   0  0  0  0  0  0  0  0  0  0  0  0
   -5.0517    0.3365  -21.7945 C   0  0  0  0  0  0  0  0  0  0  0  0
   -5.4792    0.0204  -20.4764 C   0  0  0  0  0  0  0  0  0  0  0  0
   -5.5889   -0.0585  -22.6524 H   0  0  0  0  0  0  0  0  0  0  0  0
   -3.6192    1.3515  -23.0210 H   0  0  0  0  0  0  0  0  0  0  0  0
   -2.3747    2.3108  -21.0972 H   0  0  0  0  0  0  0  0  0  0  0  0
   -3.0830    1.7962  -18.7838 H   0  0  0  0  0  0  0  0  0  0  0  0
   -4.5982    0.6386  -17.2287 H   0  0  0  0  0  0  0  0  0  0  0  0
   -7.7129   -1.6937  -18.5715 H   0  0  0  0  0  0  0  0  0  0  0  0
   -6.9036   -1.7717  -22.0844 H   0  0  0  0  0  0  0  0  0  0  0  0
   -8.0955   -2.1947  -20.8613 H   0  0  0  0  0  0  0  0  0  0  0  0
   -7.6265   -0.3266  -23.5887 H   0  0  0  0  0  0  0  0  0  0  0  0
   -7.8102   -1.5026  -25.4330 H   0  0  0  0  0  0  0  0  0  0  0  0
   -8.9967   -3.2839  -26.6635 H   0  0  0  0  0  0  0  0  0  0  0  0
  -11.2255   -4.0366  -25.9460 H   0  0  0  0  0  0  0  0  0  0  0  0
  -11.1848    0.0571  -22.3452 H   0  0  0  0  0  0  0  0  0  0  0  0
  -10.9004   -1.4158  -21.4467 H   0  0  0  0  0  0  0  0  0  0  0  0
  -13.3474   -0.8144  -23.1492 H   0  0  0  0  0  0  0  0  0  0  0  0
  -13.2794   -0.9714  -21.3810 H   0  0  0  0  0  0  0  0  0  0  0  0
  -12.3933   -3.3316  -21.6989 H   0  0  0  0  0  0  0  0  0  0  0  0
  -14.0376   -3.0747  -22.3086 H   0  0  0  0  0  0  0  0  0  0  0  0
  -14.4562   -4.7869  -23.0054 H   0  0  0  0  0  0  0  0  0  0  0  0
  -16.2317   -5.8470  -24.3416 H   0  0  0  0  0  0  0  0  0  0  0  0
  -15.5364   -5.0039  -25.8421 H   0  0  0  0  0  0  0  0  0  0  0  0
  1  2  2  0
  2  3  1  0
  3  4  2  0
  3  5  1  0
  5  6  1  0
  6  7  1  0
  7  8  1  0
  8  9  1  0
  9 10  2  0
 10 11  1  0
 11 12  2  0
 12 13  1  0
 13 14  2  0
 14 15  1  0
 15 16  1  0
 16 17  1  0
 17 18  2  0
 18 19  1  0
 19 20  2  0
 20 21  1  0
 21 22  1  0
 21 23  2  0
 23 24  1  0
 20 25  1  0
 19 26  1  0
 18 27  1  0
 16 28  1  0
 16 29  1  0
 15 30  1  0
 30 31  2  0
 30 32  1  0
 32 33  1  0
 33 34  2  0
 34 35  1  0
 35 36  2  0
 36 37  1  0
 37 38  2  0
 38 39  1  0
 39 40  2  0
 40 41  1  0
 41 42  2  0
 41 43  1  0
 40 44  1  0
 39 45  1  0
 38 46  1  0
 36 47  1  0
 34 48  1  0
 32 49  1  0
 32 50  1  0
 15 51  1  6
 13 52  1  0
 12 53  1  0
 11 54  1  0
  8 55  1  0
  8 56  1  0
  7 57  1  0
  7 58  1  0
  6 59  1  0
  6 60  1  0
  2 61  1  0
  1 62  1  0
  1 63  1  0
 10  5  1  0
 23 17  1  0
 42 33  1  0
 14  9  1  0
 42 37  1  0
M  CHG  1  15   1
M  END
>  <cnnaffinities>  (67) 
[6.2813, 6.56154]

>  <score>  (67) 
6.2813

>  <index>  (67) 
69

>  <Smiles>  (67) 
C(=C(C(=O)N1C(C(C(c2c1c(c(c(c2[N@@+](C(c1c(c(c(c(Cl)c1[H])[H])[H])[H])([H])[H])(C(=O)C(c1c(nc(c2c(c(c(c(c12)[H])[H])[H])[H])[H])[H])([H])[H])[H])[H])[H])[H])([H])[H])([H])[H])([H])[H])[H])([H])[H]

>  <h>  (67) 
<NA>

>  <Training>  (67) 
True

>  <Success>  (67) 
True

>  <enamine_searched>  (67) 
False

>  <enamine_id>  (67) 
nan

$$$$

     RDKit          3D

 52 54  0  0  0  0  0  0  0  0999 V2000
   -8.7873    3.4211  -28.0361 C   0  0  0  0  0  0  0  0  0  0  0  0
   -8.8531    1.9888  -27.7985 C   0  0  0  0  0  0  0  0  0  0  0  0
   -8.8004    1.8233  -28.0184 C   0  0  0  0  0  0  0  0  0  0  0  0
   -8.5063    1.4215  -29.5257 H   0  0  0  0  0  0  0  0  0  0  0  0
  -10.1454    1.9692  -28.2059 H   0  0  0  0  0  0  0  0  0  0  0  0
   -8.9028    0.4508  -28.8043 H   0  0  0  0  0  0  0  0  0  0  0  0
   -7.4998    1.5761  -27.2314 C   0  0  0  0  0  0  0  0  0  0  0  0
   -7.3648    0.9743  -25.8180 C   0  0  0  0  0  0  0  0  0  0  0  0
   -5.8478    0.7544  -25.6325 C   0  0  0  0  0  0  0  0  0  0  0  0
   -5.5000   -0.0425  -26.3018 H   0  0  0  0  0  0  0  0  0  0  0  0
   -5.5681    0.4751  -24.6076 H   0  0  0  0  0  0  0  0  0  0  0  0
   -5.2936    1.6669  -25.8767 H   0  0  0  0  0  0  0  0  0  0  0  0
   -8.0718   -0.3855  -25.6037 C   0  0  0  0  0  0  0  0  0  0  0  0
   -7.8080   -0.9219  -24.1892 C   0  0  0  0  0  0  0  0  0  0  0  0
   -8.1339    0.1005  -23.1896 N   0  0  0  0  0  0  0  0  0  0  0  0
   -8.2923   -0.1859  -21.8538 C   0  0  0  0  0  0  0  0  0  0  0  0
   -9.0184    0.4766  -21.1271 O   0  0  0  0  0  0  0  0  0  0  0  0
   -7.5049   -1.3551  -21.2559 C   0  0  0  0  0  0  0  0  0  0  0  0
   -6.6182   -0.8710  -20.1372 C   0  0  0  0  0  0  0  0  0  0  0  0
   -6.9341   -1.0992  -18.8252 C   0  0  0  0  0  0  0  0  0  0  0  0
   -6.2460   -0.6169  -17.7554 N   0  0  0  0  0  0  0  0  0  0  0  0
   -5.2031    0.1350  -18.0126 C   0  0  0  0  0  0  0  0  0  0  0  0
   -4.7510    0.4509  -19.3233 C   0  0  0  0  0  0  0  0  0  0  0  0
   -3.6290    1.2859  -19.5578 C   0  0  0  0  0  0  0  0  0  0  0  0
   -3.2217    1.5616  -20.8354 C   0  0  0  0  0  0  0  0  0  0  0  0
   -3.9116    1.0051  -21.9349 C   0  0  0  0  0  0  0  0  0  0  0  0
   -5.0029    0.1975  -21.7319 C   0  0  0  0  0  0  0  0  0  0  0  0
   -5.4641   -0.0833  -20.4185 C   0  0  0  0  0  0  0  0  0  0  0  0
   -5.5283   -0.2297  -22.5791 H   0  0  0  0  0  0  0  0  0  0  0  0
   -3.5713    1.2268  -22.9430 H   0  0  0  0  0  0  0  0  0  0  0  0
   -2.3715    2.2141  -21.0107 H   0  0  0  0  0  0  0  0  0  0  0  0
   -3.1127    1.7129  -18.7018 H   0  0  0  0  0  0  0  0  0  0  0  0
   -4.6524    0.5320  -17.1580 H   0  0  0  0  0  0  0  0  0  0  0  0
   -7.7973   -1.7163  -18.5746 H   0  0  0  0  0  0  0  0  0  0  0  0
   -6.9268   -1.8874  -22.0157 H   0  0  0  0  0  0  0  0  0  0  0  0
   -8.2464   -2.0513  -20.8470 H   0  0  0  0  0  0  0  0  0  0  0  0
   -8.7586    1.3302  -23.6802 C   0  0  0  0  0  0  0  0  0  0  0  0
   -7.9086    1.9858  -24.7748 C   0  0  0  0  0  0  0  0  0  0  0  0
   -7.0683    2.5084  -24.2993 H   0  0  0  0  0  0  0  0  0  0  0  0
   -8.5081    2.7509  -25.2889 H   0  0  0  0  0  0  0  0  0  0  0  0
   -8.8786    1.9889  -22.8201 H   0  0  0  0  0  0  0  0  0  0  0  0
   -9.7694    1.1095  -24.0534 H   0  0  0  0  0  0  0  0  0  0  0  0
   -6.7558   -1.2268  -24.1027 H   0  0  0  0  0  0  0  0  0  0  0  0
   -8.4108   -1.8223  -24.0138 H   0  0  0  0  0  0  0  0  0  0  0  0
   -7.7364   -1.1349  -26.3350 H   0  0  0  0  0  0  0  0  0  0  0  0
   -9.1551   -0.2757  -25.7300 H   0  0  0  0  0  0  0  0  0  0  0  0
   -6.7308    2.3971  -27.2081 H   0  0  0  0  0  0  0  0  0  0  0  0
   -7.0958    0.8470  -27.9703 H   0  0  0  0  0  0  0  0  0  0  0  0
   -9.4502    1.8434  -26.6861 H   0  0  0  0  0  0  0  0  0  0  0  0
   -9.5082    3.8895  -27.3304 H   0  0  0  0  0  0  0  0  0  0  0  0
   -7.8651    3.9868  -27.6950 H   0  0  0  0  0  0  0  0  0  0  0  0
   -9.0433    3.9113  -29.0128 H   0  0  0  0  0  0  0  0  0  0  0  0
  1  2  1  0
  2  3  1  0
  3  4  1  0
  3  5  1  0
  3  6  1  0
  2  7  1  0
  7  8  1  0
  8  9  1  0
  9 10  1  0
  9 11  1  0
  9 12  1  0
  8 13  1  0
 13 14  1  0
 14 15  1  0
 15 16  1  0
 16 17  2  0
 16 18  1  0
 18 19  1  0
 19 20  2  0
 20 21  1  0
 21 22  2  0
 22 23  1  0
 23 24  2  0
 24 25  1  0
 25 26  2  0
 26 27  1  0
 27 28  2  0
 27 29  1  0
 26 30  1  0
 25 31  1  0
 24 32  1  0
 22 33  1  0
 20 34  1  0
 18 35  1  0
 18 36  1  0
 15 37  1  0
 37 38  1  0
 38 39  1  0
 38 40  1  0
 37 41  1  0
 37 42  1  0
 14 43  1  0
 14 44  1  0
 13 45  1  0
 13 46  1  0
  7 47  1  0
  7 48  1  0
  2 49  1  0
  1 50  1  0
  1 51  1  0
  1 52  1  0
 38  8  1  0
 28 19  1  0
 28 23  1  0
M  END
>  <cnnaffinities>  (68) 
[4.75034]

>  <score>  (68) 
4.75034

>  <index>  (68) 
70

>  <Smiles>  (68) 
C(C(C([H])([H])[H])(C(C1(C([H])([H])[H])C(C(N(C(=O)C(c2c(nc(c3c(c(c(c(c23)[H])[H])[H])[H])[H])[H])([H])[H])C(C1([H])[H])([H])[H])([H])[H])([H])[H])([H])[H])[H])([H])([H])[H]

>  <h>  (68) 
<NA>

>  <Training>  (68) 
True

>  <Success>  (68) 
True

>  <enamine_searched>  (68) 
False

>  <enamine_id>  (68) 
nan

$$$$

     RDKit          3D

 50 54  0  0  0  0  0  0  0  0999 V2000
   -7.6140   -3.6148  -23.6747 C   0  0  0  0  0  0  0  0  0  0  0  0
   -8.4879   -2.9283  -22.6126 C   0  0  1  0  0  0  0  0  0  0  0  0
   -7.6855   -2.7871  -21.2866 C   0  0  0  0  0  0  0  0  0  0  0  0
   -7.3755   -1.3764  -21.2075 N   0  0  0  0  0  0  0  0  0  0  0  0
   -6.5765   -0.8248  -20.1808 C   0  0  0  0  0  0  0  0  0  0  0  0
   -6.8808   -1.0693  -18.8653 C   0  0  0  0  0  0  0  0  0  0  0  0
   -6.2060   -0.5557  -17.8141 N   0  0  0  0  0  0  0  0  0  0  0  0
   -5.1743    0.2118  -18.0755 C   0  0  0  0  0  0  0  0  0  0  0  0
   -4.7259    0.5133  -19.3934 C   0  0  0  0  0  0  0  0  0  0  0  0
   -3.5959    1.3463  -19.6186 C   0  0  0  0  0  0  0  0  0  0  0  0
   -3.1780    1.6182  -20.8922 C   0  0  0  0  0  0  0  0  0  0  0  0
   -3.8610    1.0613  -21.9961 C   0  0  0  0  0  0  0  0  0  0  0  0
   -4.9499    0.2507  -21.8023 C   0  0  0  0  0  0  0  0  0  0  0  0
   -5.4291   -0.0248  -20.4876 C   0  0  0  0  0  0  0  0  0  0  0  0
   -5.4684   -0.1679  -22.6559 H   0  0  0  0  0  0  0  0  0  0  0  0
   -3.5291    1.2872  -23.0059 H   0  0  0  0  0  0  0  0  0  0  0  0
   -2.3239    2.2682  -21.0642 H   0  0  0  0  0  0  0  0  0  0  0  0
   -3.0866    1.7730  -18.7595 H   0  0  0  0  0  0  0  0  0  0  0  0
   -4.6306    0.6281  -17.2249 H   0  0  0  0  0  0  0  0  0  0  0  0
   -7.7395   -1.6865  -18.6123 H   0  0  0  0  0  0  0  0  0  0  0  0
   -8.1163   -0.5965  -22.0682 C   0  0  0  0  0  0  0  0  0  0  0  0
   -8.0991    0.6326  -22.0657 O   0  0  0  0  0  0  0  0  0  0  0  0
   -9.0457   -1.4910  -22.9706 C   0  0  1  0  0  0  0  0  0  0  0  0
   -8.6789   -1.0857  -24.4778 C   0  0  0  0  0  0  0  0  0  0  0  0
   -9.2521    0.1951  -24.8708 N   0  0  0  0  0  0  0  0  0  0  0  0
   -8.4842    1.1401  -25.6633 C   0  0  0  0  0  0  0  0  0  0  0  0
   -8.0116    2.3124  -24.8739 C   0  0  0  0  0  0  0  0  0  0  0  0
   -7.6742    3.2448  -24.3033 N   0  0  0  0  0  0  0  0  0  0  0  0
   -7.6179    0.6516  -26.1047 H   0  0  0  0  0  0  0  0  0  0  0  0
   -9.1105    1.5196  -26.4684 H   0  0  0  0  0  0  0  0  0  0  0  0
  -10.5704    0.5148  -24.6145 C   0  0  0  0  0  0  0  0  0  0  0  0
  -11.0827    1.5010  -25.1237 O   0  0  0  0  0  0  0  0  0  0  0  0
  -11.2154   -0.5044  -23.5808 C   0  0  0  0  0  0  0  0  0  0  0  0
  -12.4783   -0.6613  -23.2880 C   0  0  0  0  0  0  0  0  0  0  0  0
  -12.6835   -1.4550  -21.9831 C   0  0  0  0  0  0  0  0  0  0  0  0
  -12.6829   -1.4563  -21.9826 C   0  0  0  0  0  0  0  0  0  0  0  0
  -12.9327   -3.3570  -21.2205 F   0  0  0  0  0  0  0  0  0  0  0  0
  -11.2352   -1.7510  -21.6241 C   0  0  0  0  0  0  0  0  0  0  0  0
  -10.5167   -1.3404  -22.6367 C   0  0  0  0  0  0  0  0  0  0  0  0
  -11.4773   -2.7187  -21.6164 H   0  0  0  0  0  0  0  0  0  0  0  0
  -13.6017   -0.9754  -21.5686 H   0  0  0  0  0  0  0  0  0  0  0  0
  -13.2877   -0.0389  -23.4682 H   0  0  0  0  0  0  0  0  0  0  0  0
   -7.5890   -1.0353  -24.6079 H   0  0  0  0  0  0  0  0  0  0  0  0
   -9.0604   -1.8727  -25.1334 H   0  0  0  0  0  0  0  0  0  0  0  0
   -8.2434   -3.1252  -20.3994 H   0  0  0  0  0  0  0  0  0  0  0  0
   -6.7556   -3.3666  -21.3113 H   0  0  0  0  0  0  0  0  0  0  0  0
   -9.3283   -3.6052  -22.4360 H   0  0  0  0  0  0  0  0  0  0  0  0
   -8.1608   -3.7473  -24.6062 H   0  0  0  0  0  0  0  0  0  0  0  0
   -7.3157   -4.6062  -23.3240 H   0  0  0  0  0  0  0  0  0  0  0  0
   -6.7100   -3.0413  -23.8768 H   0  0  0  0  0  0  0  0  0  0  0  0
  1  2  1  0
  2  3  1  0
  3  4  1  0
  4  5  1  0
  5  6  2  0
  6  7  1  0
  7  8  2  0
  8  9  1  0
  9 10  2  0
 10 11  1  0
 11 12  2  0
 12 13  1  0
 13 14  2  0
 13 15  1  0
 12 16  1  0
 11 17  1  0
 10 18  1  0
  8 19  1  0
  6 20  1  0
  4 21  1  0
 21 22  2  0
 21 23  1  0
 23 24  1  6
 24 25  1  0
 25 26  1  0
 26 27  1  0
 27 28  3  0
 26 29  1  0
 26 30  1  0
 25 31  1  0
 31 32  2  0
 31 33  1  0
 33 34  2  0
 34 35  1  0
 35 36  2  0
 36 37  1  0
 36 38  1  0
 38 39  2  0
 38 40  1  0
 35 41  1  0
 34 42  1  0
 24 43  1  0
 24 44  1  0
  3 45  1  0
  3 46  1  0
  2 47  1  1
  1 48  1  0
  1 49  1  0
  1 50  1  0
 23  2  1  0
 39 33  1  0
 14  5  1  0
 39 23  1  0
 14  9  1  0
M  END
>  <cnnaffinities>  (69) 
[5.8816]

>  <score>  (69) 
5.8816

>  <index>  (69) 
71

>  <Smiles>  (69) 
C([C@]1(C(N(c2c(nc(c3c(c(c(c(c23)[H])[H])[H])[H])[H])[H])C(=O)[C@]21C(N(C(C#N)([H])[H])C(=O)c1c(c(c(F)c(c21)[H])[H])[H])([H])[H])([H])[H])[H])([H])([H])[H]

>  <h>  (69) 
<NA>

>  <Training>  (69) 
True

>  <Success>  (69) 
True

>  <enamine_searched>  (69) 
False

>  <enamine_id>  (69) 
nan

$$$$

     RDKit          3D

 41 44  0  0  0  0  0  0  0  0999 V2000
   -5.4993   -2.9998  -21.4610 O   0  0  0  0  0  0  0  0  0  0  0  0
   -6.5647   -2.6026  -21.9039 C   0  0  0  0  0  0  0  0  0  0  0  0
   -7.3532   -1.4638  -21.2426 C   0  0  0  0  0  0  0  0  0  0  0  0
   -6.5783   -0.8239  -20.1430 C   0  0  0  0  0  0  0  0  0  0  0  0
   -6.8946   -1.0478  -18.8307 C   0  0  0  0  0  0  0  0  0  0  0  0
   -6.2177   -0.5410  -17.7679 N   0  0  0  0  0  0  0  0  0  0  0  0
   -5.1784    0.2138  -18.0419 C   0  0  0  0  0  0  0  0  0  0  0  0
   -4.7302    0.5171  -19.3579 C   0  0  0  0  0  0  0  0  0  0  0  0
   -3.5989    1.3363  -19.6030 C   0  0  0  0  0  0  0  0  0  0  0  0
   -3.2013    1.6142  -20.8846 C   0  0  0  0  0  0  0  0  0  0  0  0
   -3.9132    1.0773  -21.9811 C   0  0  0  0  0  0  0  0  0  0  0  0
   -5.0101    0.2810  -21.7734 C   0  0  0  0  0  0  0  0  0  0  0  0
   -5.4476   -0.0162  -20.4495 C   0  0  0  0  0  0  0  0  0  0  0  0
   -5.5421   -0.1378  -22.6245 H   0  0  0  0  0  0  0  0  0  0  0  0
   -3.5928    1.3078  -22.9951 H   0  0  0  0  0  0  0  0  0  0  0  0
   -2.3437    2.2560  -21.0662 H   0  0  0  0  0  0  0  0  0  0  0  0
   -3.0700    1.7535  -18.7508 H   0  0  0  0  0  0  0  0  0  0  0  0
   -4.6286    0.6253  -17.1945 H   0  0  0  0  0  0  0  0  0  0  0  0
   -7.7463   -1.6787  -18.5715 H   0  0  0  0  0  0  0  0  0  0  0  0
   -7.6134   -0.7178  -22.0075 H   0  0  0  0  0  0  0  0  0  0  0  0
   -8.2949   -1.8709  -20.8521 H   0  0  0  0  0  0  0  0  0  0  0  0
   -7.1025   -3.0976  -23.0656 N   0  0  0  0  0  0  0  0  0  0  0  0
   -8.5331   -3.0391  -23.3646 C   0  0  0  0  0  0  0  0  0  0  0  0
   -9.3442   -4.2382  -22.8480 C   0  0  0  0  0  0  0  0  0  0  0  0
   -8.9175   -5.5387  -23.5574 C   0  0  0  0  0  0  0  0  0  0  0  0
   -7.6307   -6.1151  -23.0153 C   0  0  0  0  0  0  0  0  0  0  0  0
   -7.4474   -7.7040  -22.3595 S   0  0  0  0  0  0  0  0  0  0  0  0
   -5.7719   -7.4689  -22.0544 C   0  0  0  0  0  0  0  0  0  0  0  0
   -5.3662   -6.2293  -22.4484 C   0  0  0  0  0  0  0  0  0  0  0  0
   -6.4319   -5.4797  -23.0498 C   0  0  0  0  0  0  0  0  0  0  0  0
   -6.3158   -4.1330  -23.7362 C   0  0  0  0  0  0  0  0  0  0  0  0
   -5.2710   -3.8091  -23.8030 H   0  0  0  0  0  0  0  0  0  0  0  0
   -6.7140   -4.1979  -24.7571 H   0  0  0  0  0  0  0  0  0  0  0  0
   -4.3643   -5.8265  -22.3082 H   0  0  0  0  0  0  0  0  0  0  0  0
   -5.2012   -8.3098  -21.6678 H   0  0  0  0  0  0  0  0  0  0  0  0
   -8.7509   -5.2865  -24.6168 H   0  0  0  0  0  0  0  0  0  0  0  0
   -9.7086   -6.2858  -23.5712 H   0  0  0  0  0  0  0  0  0  0  0  0
  -10.4003   -4.0374  -23.0604 H   0  0  0  0  0  0  0  0  0  0  0  0
   -9.2643   -4.3116  -21.7523 H   0  0  0  0  0  0  0  0  0  0  0  0
   -8.6289   -2.9845  -24.4594 H   0  0  0  0  0  0  0  0  0  0  0  0
   -8.9372   -2.1011  -22.9719 H   0  0  0  0  0  0  0  0  0  0  0  0
  1  2  2  0
  2  3  1  0
  3  4  1  0
  4  5  2  0
  5  6  1  0
  6  7  2  0
  7  8  1  0
  8  9  2  0
  9 10  1  0
 10 11  2  0
 11 12  1  0
 12 13  2  0
 12 14  1  0
 11 15  1  0
 10 16  1  0
  9 17  1  0
  7 18  1  0
  5 19  1  0
  3 20  1  0
  3 21  1  0
  2 22  1  0
 22 23  1  0
 23 24  1  0
 24 25  1  0
 25 26  1  0
 26 27  1  0
 27 28  1  0
 28 29  2  0
 29 30  1  0
 30 31  1  0
 31 32  1  0
 31 33  1  0
 29 34  1  0
 28 35  1  0
 25 36  1  0
 25 37  1  0
 24 38  1  0
 24 39  1  0
 23 40  1  0
 23 41  1  0
 13  4  1  0
 31 22  1  0
 13  8  1  0
 30 26  2  0
M  END
>  <cnnaffinities>  (70) 
[5.09286, 5.24073]

>  <score>  (70) 
5.09286

>  <index>  (70) 
72

>  <Smiles>  (70) 
O=C(C(c1c(nc(c2c(c(c(c(c12)[H])[H])[H])[H])[H])[H])([H])[H])N1C(C(C(c2sc(c(c2C1([H])[H])[H])[H])([H])[H])([H])[H])([H])[H]

>  <h>  (70) 
<NA>

>  <Training>  (70) 
True

>  <Success>  (70) 
True

>  <enamine_searched>  (70) 
False

>  <enamine_id>  (70) 
nan

$$$$

     RDKit          3D

 50 53  0  0  0  0  0  0  0  0999 V2000
   -5.6012   -3.0215  -21.5762 O   0  0  0  0  0  0  0  0  0  0  0  0
   -6.7560   -2.7522  -21.8582 C   0  0  0  0  0  0  0  0  0  0  0  0
   -7.4152   -1.4776  -21.2676 C   0  0  0  0  0  0  0  0  0  0  0  0
   -6.5802   -0.8308  -20.1822 C   0  0  0  0  0  0  0  0  0  0  0  0
   -6.8737   -1.0448  -18.8615 C   0  0  0  0  0  0  0  0  0  0  0  0
   -6.1910   -0.5406  -17.7982 N   0  0  0  0  0  0  0  0  0  0  0  0
   -5.1586    0.2220  -18.0661 C   0  0  0  0  0  0  0  0  0  0  0  0
   -4.7206    0.5288  -19.3813 C   0  0  0  0  0  0  0  0  0  0  0  0
   -3.5909    1.3533  -19.6225 C   0  0  0  0  0  0  0  0  0  0  0  0
   -3.1895    1.6306  -20.9009 C   0  0  0  0  0  0  0  0  0  0  0  0
   -3.9013    1.0877  -21.9930 C   0  0  0  0  0  0  0  0  0  0  0  0
   -4.9989    0.2873  -21.7869 C   0  0  0  0  0  0  0  0  0  0  0  0
   -5.4451   -0.0133  -20.4745 C   0  0  0  0  0  0  0  0  0  0  0  0
   -5.5259   -0.1322  -22.6377 H   0  0  0  0  0  0  0  0  0  0  0  0
   -3.5756    1.3110  -23.0049 H   0  0  0  0  0  0  0  0  0  0  0  0
   -2.3285    2.2703  -21.0853 H   0  0  0  0  0  0  0  0  0  0  0  0
   -3.0575    1.7741  -18.7718 H   0  0  0  0  0  0  0  0  0  0  0  0
   -4.6028    0.6278  -17.2170 H   0  0  0  0  0  0  0  0  0  0  0  0
   -7.7210   -1.6702  -18.5851 H   0  0  0  0  0  0  0  0  0  0  0  0
   -7.6146   -0.7485  -22.0658 H   0  0  0  0  0  0  0  0  0  0  0  0
   -8.3959   -1.7472  -20.8481 H   0  0  0  0  0  0  0  0  0  0  0  0
   -7.5182   -3.5825  -22.6640 N   0  0  0  0  0  0  0  0  0  0  0  0
   -8.6638   -3.1250  -23.4530 C   0  0  0  0  0  0  0  0  0  0  0  0
   -9.7355   -4.2016  -23.5637 C   0  0  0  0  0  0  0  0  0  0  0  0
   -9.1621   -5.5023  -24.1058 C   0  0  0  0  0  0  0  0  0  0  0  0
   -7.9809   -5.9345  -23.2469 C   0  0  0  0  0  0  0  0  0  0  0  0
   -6.9074   -4.8527  -23.1038 C   0  0  1  0  0  0  0  0  0  0  0  0
   -6.0418   -4.6970  -24.3739 C   0  0  0  0  0  0  0  0  0  0  0  0
   -5.2219   -5.9286  -24.7052 C   0  0  0  0  0  0  0  0  0  0  0  0
   -4.0751   -6.2231  -23.9720 C   0  0  0  0  0  0  0  0  0  0  0  0
   -3.2855   -7.3343  -24.2317 C   0  0  0  0  0  0  0  0  0  0  0  0
   -3.6688   -8.2197  -25.2299 C   0  0  0  0  0  0  0  0  0  0  0  0
   -4.8287   -7.9642  -25.9560 C   0  0  0  0  0  0  0  0  0  0  0  0
   -5.5933   -6.8304  -25.6989 C   0  0  0  0  0  0  0  0  0  0  0  0
   -6.5028   -6.6436  -26.2623 H   0  0  0  0  0  0  0  0  0  0  0  0
   -5.1422   -8.6489  -26.7343 H   0  0  0  0  0  0  0  0  0  0  0  0
   -3.0690   -9.1003  -25.4302 H   0  0  0  0  0  0  0  0  0  0  0  0
   -2.3865   -7.5082  -23.6423 H   0  0  0  0  0  0  0  0  0  0  0  0
   -3.8486   -5.5902  -23.1326 H   0  0  0  0  0  0  0  0  0  0  0  0
   -6.6863   -4.4540  -25.2254 H   0  0  0  0  0  0  0  0  0  0  0  0
   -5.3776   -3.8396  -24.2161 H   0  0  0  0  0  0  0  0  0  0  0  0
   -6.2365   -5.1564  -22.2977 H   0  0  0  0  0  0  0  0  0  0  0  0
   -8.3360   -6.1747  -22.2437 H   0  0  0  0  0  0  0  0  0  0  0  0
   -7.5384   -6.8563  -23.6396 H   0  0  0  0  0  0  0  0  0  0  0  0
   -9.9318   -6.2834  -24.1251 H   0  0  0  0  0  0  0  0  0  0  0  0
   -8.8392   -5.3748  -25.1474 H   0  0  0  0  0  0  0  0  0  0  0  0
  -10.1665   -4.3772  -22.5737 H   0  0  0  0  0  0  0  0  0  0  0  0
  -10.5521   -3.8487  -24.2014 H   0  0  0  0  0  0  0  0  0  0  0  0
   -9.0873   -2.2315  -22.9918 H   0  0  0  0  0  0  0  0  0  0  0  0
   -8.3535   -2.8296  -24.4676 H   0  0  0  0  0  0  0  0  0  0  0  0
  1  2  2  0
  2  3  1  0
  3  4  1  0
  4  5  2  0
  5  6  1  0
  6  7  2  0
  7  8  1  0
  8  9  2  0
  9 10  1  0
 10 11  2  0
 11 12  1  0
 12 13  2  0
 12 14  1  0
 11 15  1  0
 10 16  1  0
  9 17  1  0
  7 18  1  0
  5 19  1  0
  3 20  1  0
  3 21  1  0
  2 22  1  0
 22 23  1  0
 23 24  1  0
 24 25  1  0
 25 26  1  0
 26 27  1  0
 27 28  1  0
 28 29  1  0
 29 30  2  0
 30 31  1  0
 31 32  2  0
 32 33  1  0
 33 34  2  0
 34 35  1  0
 33 36  1  0
 32 37  1  0
 31 38  1  0
 30 39  1  0
 28 40  1  0
 28 41  1  0
 27 42  1  1
 26 43  1  0
 26 44  1  0
 25 45  1  0
 25 46  1  0
 24 47  1  0
 24 48  1  0
 23 49  1  0
 23 50  1  0
 13  4  1  0
 27 22  1  0
 34 29  1  0
 13  8  1  0
M  END
>  <cnnaffinities>  (71) 
[5.65473]

>  <score>  (71) 
5.65473

>  <index>  (71) 
73

>  <Smiles>  (71) 
O=C(C(c1c(nc(c2c(c(c(c(c12)[H])[H])[H])[H])[H])[H])([H])[H])N1C(C(C(C([C@]1(C(c1c(c(c(c(c1[H])[H])[H])[H])[H])([H])[H])[H])([H])[H])([H])[H])([H])[H])([H])[H]

>  <h>  (71) 
<NA>

>  <Training>  (71) 
True

>  <Success>  (71) 
True

>  <enamine_searched>  (71) 
False

>  <enamine_id>  (71) 
nan

$$$$

     RDKit          3D

 43 47  0  0  0  0  0  0  0  0999 V2000
   -9.4235   -0.4512  -20.9900 O   0  0  0  0  0  0  0  0  0  0  0  0
   -8.7429   -1.3648  -21.3800 C   0  0  0  0  0  0  0  0  0  0  0  0
   -9.1356   -2.4507  -22.1159 N   0  0  0  0  0  0  0  0  0  0  0  0
   -8.0395   -3.1475  -22.7409 C   0  0  1  0  0  0  0  0  0  0  0  0
   -8.1048   -4.6902  -22.7173 C   0  0  0  0  0  0  0  0  0  0  0  0
   -8.2241   -4.7225  -24.2752 C   0  0  2  0  0  0  0  0  0  0  0  0
   -7.1760   -5.5215  -24.9863 C   0  0  0  0  0  0  0  0  0  0  0  0
   -5.8197   -5.2771  -24.7408 C   0  0  0  0  0  0  0  0  0  0  0  0
   -4.8302   -6.0101  -25.3846 C   0  0  0  0  0  0  0  0  0  0  0  0
   -5.1796   -7.0114  -26.2894 C   0  0  0  0  0  0  0  0  0  0  0  0
   -6.5194   -7.2748  -26.5438 C   0  0  0  0  0  0  0  0  0  0  0  0
   -7.4974   -6.5328  -25.8925 C   0  0  0  0  0  0  0  0  0  0  0  0
   -9.1668   -6.9150  -26.2486 Cl  0  0  0  0  0  0  0  0  0  0  0  0
   -6.8254   -8.0477  -27.2426 H   0  0  0  0  0  0  0  0  0  0  0  0
   -4.4103   -7.5877  -26.7956 H   0  0  0  0  0  0  0  0  0  0  0  0
   -3.7864   -5.7974  -25.1734 H   0  0  0  0  0  0  0  0  0  0  0  0
   -5.5450   -4.4982  -24.0263 H   0  0  0  0  0  0  0  0  0  0  0  0
   -8.0347   -3.1708  -24.2985 C   0  0  0  0  0  0  0  0  0  0  0  0
   -8.8562   -2.6038  -24.7511 H   0  0  0  0  0  0  0  0  0  0  0  0
   -7.0973   -2.8282  -24.7553 H   0  0  0  0  0  0  0  0  0  0  0  0
   -9.2252   -5.0196  -24.6016 H   0  0  0  0  0  0  0  0  0  0  0  0
   -8.9683   -5.0692  -22.1635 H   0  0  0  0  0  0  0  0  0  0  0  0
   -7.1914   -5.1486  -22.3201 H   0  0  0  0  0  0  0  0  0  0  0  0
   -6.8393   -2.5164  -22.0530 C   0  0  0  0  0  0  0  0  0  0  0  0
   -5.6778   -2.8036  -22.2315 O   0  0  0  0  0  0  0  0  0  0  0  0
   -7.3399   -1.5190  -21.2047 N   0  0  0  0  0  0  0  0  0  0  0  0
   -6.5842   -0.8594  -20.1868 C   0  0  0  0  0  0  0  0  0  0  0  0
   -6.9097   -1.0591  -18.8670 C   0  0  0  0  0  0  0  0  0  0  0  0
   -6.2170   -0.5424  -17.8234 N   0  0  0  0  0  0  0  0  0  0  0  0
   -5.1785    0.2069  -18.0967 C   0  0  0  0  0  0  0  0  0  0  0  0
   -4.7447    0.5210  -19.4118 C   0  0  0  0  0  0  0  0  0  0  0  0
   -3.6143    1.3520  -19.6391 C   0  0  0  0  0  0  0  0  0  0  0  0
   -3.2253    1.6567  -20.9126 C   0  0  0  0  0  0  0  0  0  0  0  0
   -3.9562    1.1438  -22.0081 C   0  0  0  0  0  0  0  0  0  0  0  0
   -5.0502    0.3365  -21.8139 C   0  0  0  0  0  0  0  0  0  0  0  0
   -5.4693   -0.0131  -20.4998 C   0  0  0  0  0  0  0  0  0  0  0  0
   -5.5992   -0.0506  -22.6659 H   0  0  0  0  0  0  0  0  0  0  0  0
   -3.6477    1.3971  -23.0165 H   0  0  0  0  0  0  0  0  0  0  0  0
   -2.3696    2.3048  -21.0893 H   0  0  0  0  0  0  0  0  0  0  0  0
   -3.0848    1.7547  -18.7807 H   0  0  0  0  0  0  0  0  0  0  0  0
   -4.6272    0.6093  -17.2480 H   0  0  0  0  0  0  0  0  0  0  0  0
   -7.7565   -1.6845  -18.5967 H   0  0  0  0  0  0  0  0  0  0  0  0
  -10.1004   -2.6068  -22.3621 H   0  0  0  0  0  0  0  0  0  0  0  0
  1  2  2  0
  2  3  1  0
  4  3  1  6
  4  5  1  0
  5  6  1  0
  6  7  1  0
  7  8  2  0
  8  9  1  0
  9 10  2  0
 10 11  1  0
 11 12  2  0
 12 13  1  0
 11 14  1  0
 10 15  1  0
  9 16  1  0
  8 17  1  0
  6 18  1  0
 18 19  1  0
 18 20  1  0
  6 21  1  1
  5 22  1  0
  5 23  1  0
  4 24  1  0
 24 25  2  0
 24 26  1  0
 26 27  1  0
 27 28  2  0
 28 29  1  0
 29 30  2  0
 30 31  1  0
 31 32  2  0
 32 33  1  0
 33 34  2  0
 34 35  1  0
 35 36  2  0
 35 37  1  0
 34 38  1  0
 33 39  1  0
 32 40  1  0
 30 41  1  0
 28 42  1  0
  3 43  1  0
 26  2  1  0
 36 27  1  0
 18  4  1  0
 36 31  1  0
 12  7  1  0
M  END
>  <cnnaffinities>  (72) 
[5.77803]

>  <score>  (72) 
5.77803

>  <index>  (72) 
74

>  <Smiles>  (72) 
O=C1N([C@]2(C([C@](c3c(c(c(c(c3Cl)[H])[H])[H])[H])(C2([H])[H])[H])([H])[H])C(=O)N1c1c(nc(c2c(c(c(c(c12)[H])[H])[H])[H])[H])[H])[H]

>  <h>  (72) 
<NA>

>  <Training>  (72) 
True

>  <Success>  (72) 
True

>  <enamine_searched>  (72) 
False

>  <enamine_id>  (72) 
nan

$$$$

     RDKit          3D

 66 71  0  0  0  0  0  0  0  0999 V2000
   -7.4233    3.3120  -21.9287 C   0  0  0  0  0  0  0  0  0  0  0  0
   -8.5083    2.8187  -22.7664 N   0  0  0  0  0  0  0  0  0  0  0  0
   -8.1757    2.0459  -23.8395 C   0  0  0  0  0  0  0  0  0  0  0  0
   -7.0125    1.7647  -24.0931 O   0  0  0  0  0  0  0  0  0  0  0  0
   -9.3325    1.5354  -24.7064 C   0  0  0  0  0  0  0  0  0  0  0  0
   -9.8772    0.3145  -24.1453 N   0  0  0  0  0  0  0  0  0  0  0  0
   -9.0368   -0.8754  -24.0678 C   0  0  0  0  0  0  0  0  0  0  0  0
   -9.2776   -1.6639  -22.7480 C   0  0  2  0  0  0  0  0  0  0  0  0
   -8.6835   -0.8482  -21.5667 C   0  0  0  0  0  0  0  0  0  0  0  0
   -9.1646    0.1362  -21.0462 O   0  0  0  0  0  0  0  0  0  0  0  0
   -7.4665   -1.3982  -21.2131 N   0  0  0  0  0  0  0  0  0  0  0  0
   -6.6613   -0.8194  -20.1962 C   0  0  0  0  0  0  0  0  0  0  0  0
   -6.9703   -1.0452  -18.8773 C   0  0  0  0  0  0  0  0  0  0  0  0
   -6.2604   -0.5673  -17.8262 N   0  0  0  0  0  0  0  0  0  0  0  0
   -5.2110    0.1712  -18.0969 C   0  0  0  0  0  0  0  0  0  0  0  0
   -4.7724    0.4874  -19.4127 C   0  0  0  0  0  0  0  0  0  0  0  0
   -3.6454    1.3203  -19.6436 C   0  0  0  0  0  0  0  0  0  0  0  0
   -3.2574    1.6290  -20.9180 C   0  0  0  0  0  0  0  0  0  0  0  0
   -3.9875    1.1269  -22.0184 C   0  0  0  0  0  0  0  0  0  0  0  0
   -5.0949    0.3327  -21.8232 C   0  0  0  0  0  0  0  0  0  0  0  0
   -5.5143   -0.0186  -20.5097 C   0  0  0  0  0  0  0  0  0  0  0  0
   -5.6803    0.0130  -22.6813 H   0  0  0  0  0  0  0  0  0  0  0  0
   -3.6820    1.3887  -23.0271 H   0  0  0  0  0  0  0  0  0  0  0  0
   -2.4009    2.2760  -21.0888 H   0  0  0  0  0  0  0  0  0  0  0  0
   -3.1215    1.7228  -18.7808 H   0  0  0  0  0  0  0  0  0  0  0  0
   -4.6494    0.5679  -17.2504 H   0  0  0  0  0  0  0  0  0  0  0  0
   -7.8371   -1.6534  -18.6290 H   0  0  0  0  0  0  0  0  0  0  0  0
   -7.0934   -2.5543  -22.0057 C   0  0  0  0  0  0  0  0  0  0  0  0
   -8.4222   -2.9564  -22.6559 C   0  0  2  0  0  0  0  0  0  0  0  0
   -8.2033   -3.7291  -23.9431 C   0  0  0  0  0  0  0  0  0  0  0  0
   -9.4513   -4.1449  -24.5287 N   0  0  0  0  0  0  0  0  0  0  0  0
   -9.4808   -4.9377  -25.6420 C   0  0  0  0  0  0  0  0  0  0  0  0
   -8.3296   -5.0909  -26.4581 C   0  0  0  0  0  0  0  0  0  0  0  0
   -8.3795   -5.7495  -27.6019 N   0  0  0  0  0  0  0  0  0  0  0  0
   -9.5494   -6.3118  -27.9334 C   0  0  0  0  0  0  0  0  0  0  0  0
  -10.6504   -6.2294  -27.0960 C   0  0  0  0  0  0  0  0  0  0  0  0
  -10.6358   -5.5301  -25.9580 N   0  0  0  0  0  0  0  0  0  0  0  0
  -11.5803   -6.7243  -27.3848 H   0  0  0  0  0  0  0  0  0  0  0  0
   -9.6171   -6.8095  -28.8985 H   0  0  0  0  0  0  0  0  0  0  0  0
   -7.3670   -4.6534  -26.1748 H   0  0  0  0  0  0  0  0  0  0  0  0
  -10.3065   -4.1321  -23.9896 H   0  0  0  0  0  0  0  0  0  0  0  0
   -7.5562   -4.6015  -23.7635 H   0  0  0  0  0  0  0  0  0  0  0  0
   -7.6687   -3.0874  -24.6582 H   0  0  0  0  0  0  0  0  0  0  0  0
   -8.9313   -3.6123  -21.9476 H   0  0  0  0  0  0  0  0  0  0  0  0
   -6.3323   -2.2956  -22.7595 H   0  0  0  0  0  0  0  0  0  0  0  0
   -6.6766   -3.3568  -21.3841 H   0  0  0  0  0  0  0  0  0  0  0  0
  -10.7795   -1.8782  -22.6002 C   0  0  0  0  0  0  0  0  0  0  0  0
  -11.3343   -2.8728  -21.7752 C   0  0  0  0  0  0  0  0  0  0  0  0
  -12.6984   -2.8790  -21.5133 C   0  0  0  0  0  0  0  0  0  0  0  0
  -13.3601   -3.8841  -20.2688 Cl  0  0  0  0  0  0  0  0  0  0  0  0
  -13.5799   -2.0205  -22.1642 C   0  0  0  0  0  0  0  0  0  0  0  0
  -13.0508   -1.0891  -23.0244 C   0  0  0  0  0  0  0  0  0  0  0  0
  -11.6750   -0.9697  -23.1826 C   0  0  0  0  0  0  0  0  0  0  0  0
  -11.2170    0.2475  -23.9102 C   0  0  0  0  0  0  0  0  0  0  0  0
  -12.0052    1.1256  -24.2427 O   0  0  0  0  0  0  0  0  0  0  0  0
  -13.6790   -0.3768  -23.5464 H   0  0  0  0  0  0  0  0  0  0  0  0
  -14.6432   -2.0626  -21.9539 H   0  0  0  0  0  0  0  0  0  0  0  0
  -10.7216   -3.6197  -21.2790 H   0  0  0  0  0  0  0  0  0  0  0  0
   -7.9909   -0.5595  -24.1267 H   0  0  0  0  0  0  0  0  0  0  0  0
   -9.2534   -1.5273  -24.9271 H   0  0  0  0  0  0  0  0  0  0  0  0
  -10.1567    2.2529  -24.7862 H   0  0  0  0  0  0  0  0  0  0  0  0
   -8.9514    1.3606  -25.7196 H   0  0  0  0  0  0  0  0  0  0  0  0
   -9.4190    2.7095  -22.3439 H   0  0  0  0  0  0  0  0  0  0  0  0
   -7.8309    3.9414  -21.1337 H   0  0  0  0  0  0  0  0  0  0  0  0
   -6.8421    2.4796  -21.5069 H   0  0  0  0  0  0  0  0  0  0  0  0
   -6.7432    3.9226  -22.5283 H   0  0  0  0  0  0  0  0  0  0  0  0
  1  2  1  0
  2  3  1  0
  3  4  2  0
  3  5  1  0
  5  6  1  0
  6  7  1  0
  8  7  1  6
  8  9  1  0
  9 10  2  0
  9 11  1  0
 11 12  1  0
 12 13  2  0
 13 14  1  0
 14 15  2  0
 15 16  1  0
 16 17  2  0
 17 18  1  0
 18 19  2  0
 19 20  1  0
 20 21  2  0
 20 22  1  0
 19 23  1  0
 18 24  1  0
 17 25  1  0
 15 26  1  0
 13 27  1  0
 11 28  1  0
 28 29  1  0
 29 30  1  0
 30 31  1  0
 31 32  1  0
 32 33  2  0
 33 34  1  0
 34 35  2  0
 35 36  1  0
 36 37  2  0
 36 38  1  0
 35 39  1  0
 33 40  1  0
 31 41  1  0
 30 42  1  0
 30 43  1  0
 29 44  1  1
 28 45  1  0
 28 46  1  0
  8 47  1  0
 47 48  2  0
 48 49  1  0
 49 50  1  0
 49 51  2  0
 51 52  1  0
 52 53  2  0
 53 54  1  0
 54 55  2  0
 52 56  1  0
 51 57  1  0
 48 58  1  0
  7 59  1  0
  7 60  1  0
  5 61  1  0
  5 62  1  0
  2 63  1  0
  1 64  1  0
  1 65  1  0
  1 66  1  0
 54  6  1  0
 29  8  1  0
 37 32  1  0
 53 47  1  0
 21 12  1  0
 21 16  1  0
M  END
>  <cnnaffinities>  (73) 
[6.38538, 6.32911]

>  <score>  (73) 
6.38538

>  <index>  (73) 
75

>  <Smiles>  (73) 
C(N(C(=O)C(N1C([C@@]2(C(=O)N(c3c(nc(c4c(c(c(c(c34)[H])[H])[H])[H])[H])[H])C([C@@]2(C(N(c2c(nc(c(n2)[H])[H])[H])[H])([H])[H])[H])([H])[H])c2c(c(Cl)c(c(c2C1=O)[H])[H])[H])([H])[H])([H])[H])[H])([H])([H])[H]

>  <h>  (73) 
<NA>

>  <Training>  (73) 
True

>  <Success>  (73) 
True

>  <enamine_searched>  (73) 
False

>  <enamine_id>  (73) 
nan

$$$$

     RDKit          3D

 66 71  0  0  0  0  0  0  0  0999 V2000
   -8.1931   -3.4717  -24.1009 C   0  0  0  0  0  0  0  0  0  0  0  0
   -8.4578   -2.7344  -22.7810 C   0  0  1  0  0  0  0  0  0  0  0  0
   -7.1773   -2.5238  -21.9455 C   0  0  0  0  0  0  0  0  0  0  0  0
   -7.4531   -1.3170  -21.1856 N   0  0  0  0  0  0  0  0  0  0  0  0
   -6.6169   -0.7931  -20.1651 C   0  0  0  0  0  0  0  0  0  0  0  0
   -6.9176   -1.0360  -18.8495 C   0  0  0  0  0  0  0  0  0  0  0  0
   -6.2054   -0.5538  -17.8033 N   0  0  0  0  0  0  0  0  0  0  0  0
   -5.1710    0.2048  -18.0791 C   0  0  0  0  0  0  0  0  0  0  0  0
   -4.7398    0.5345  -19.3976 C   0  0  0  0  0  0  0  0  0  0  0  0
   -3.6192    1.3752  -19.6442 C   0  0  0  0  0  0  0  0  0  0  0  0
   -3.2370    1.6743  -20.9244 C   0  0  0  0  0  0  0  0  0  0  0  0
   -3.9472    1.1351  -22.0185 C   0  0  0  0  0  0  0  0  0  0  0  0
   -5.0321    0.3131  -21.8059 C   0  0  0  0  0  0  0  0  0  0  0  0
   -5.4738    0.0068  -20.4855 C   0  0  0  0  0  0  0  0  0  0  0  0
   -5.5639   -0.0974  -22.6588 H   0  0  0  0  0  0  0  0  0  0  0  0
   -3.6449    1.3866  -23.0305 H   0  0  0  0  0  0  0  0  0  0  0  0
   -2.3977    2.3423  -21.1011 H   0  0  0  0  0  0  0  0  0  0  0  0
   -3.0951    1.7924  -18.7897 H   0  0  0  0  0  0  0  0  0  0  0  0
   -4.6206    0.6088  -17.2302 H   0  0  0  0  0  0  0  0  0  0  0  0
   -7.7719   -1.6590  -18.5948 H   0  0  0  0  0  0  0  0  0  0  0  0
   -8.5278   -0.5939  -21.6433 C   0  0  0  0  0  0  0  0  0  0  0  0
   -8.9150    0.4513  -21.1527 O   0  0  0  0  0  0  0  0  0  0  0  0
   -9.1186   -1.3250  -22.8743 C   0  0  1  0  0  0  0  0  0  0  0  0
   -8.7029   -0.5875  -24.1682 C   0  0  0  0  0  0  0  0  0  0  0  0
   -9.3072    0.7242  -24.2595 N   0  0  0  0  0  0  0  0  0  0  0  0
   -8.5158    1.7836  -24.8556 C   0  0  0  0  0  0  0  0  0  0  0  0
   -7.5561    2.4180  -23.8598 C   0  0  0  0  0  0  0  0  0  0  0  0
   -8.2849    3.2235  -22.8254 N   0  0  0  0  0  4  0  0  0  0  0  0
   -7.4840    3.3257  -21.5703 C   0  0  0  0  0  0  0  0  0  0  0  0
   -6.3282    4.2993  -21.6621 C   0  0  0  0  0  0  0  0  0  0  0  0
   -6.8001    5.5944  -21.9615 O   0  0  0  0  0  0  0  0  0  0  0  0
   -7.4435    5.5946  -23.2174 C   0  0  0  0  0  0  0  0  0  0  0  0
   -8.6478    4.6474  -23.2509 C   0  0  0  0  0  0  0  0  0  0  0  0
   -9.4030    5.0045  -22.5468 H   0  0  0  0  0  0  0  0  0  0  0  0
   -9.0704    4.6146  -24.2574 H   0  0  0  0  0  0  0  0  0  0  0  0
   -6.7187    5.3082  -23.9937 H   0  0  0  0  0  0  0  0  0  0  0  0
   -7.7654    6.6237  -23.3945 H   0  0  0  0  0  0  0  0  0  0  0  0
   -5.8427    4.3610  -20.6940 H   0  0  0  0  0  0  0  0  0  0  0  0
   -5.5860    3.9615  -22.4054 H   0  0  0  0  0  0  0  0  0  0  0  0
   -7.1381    2.3178  -21.3250 H   0  0  0  0  0  0  0  0  0  0  0  0
   -8.1601    3.6831  -20.7907 H   0  0  0  0  0  0  0  0  0  0  0  0
   -9.1456    2.6977  -22.5675 H   0  0  0  0  0  0  0  0  0  0  0  0
   -6.9904    1.6472  -23.3216 H   0  0  0  0  0  0  0  0  0  0  0  0
   -6.8370    3.0576  -24.3759 H   0  0  0  0  0  0  0  0  0  0  0  0
   -7.9352    1.3777  -25.6917 H   0  0  0  0  0  0  0  0  0  0  0  0
   -9.2174    2.5272  -25.2287 H   0  0  0  0  0  0  0  0  0  0  0  0
  -10.6566    0.8582  -24.1221 C   0  0  0  0  0  0  0  0  0  0  0  0
  -11.2673    1.8680  -24.4544 O   0  0  0  0  0  0  0  0  0  0  0  0
  -11.3471   -0.3062  -23.4702 C   0  0  0  0  0  0  0  0  0  0  0  0
  -12.7330   -0.2951  -23.4318 C   0  0  0  0  0  0  0  0  0  0  0  0
  -13.4199   -1.2345  -22.6824 C   0  0  0  0  0  0  0  0  0  0  0  0
  -12.7017   -2.1758  -21.9503 C   0  0  0  0  0  0  0  0  0  0  0  0
  -13.5629   -3.2375  -20.8773 Cl  0  0  0  0  0  0  0  0  0  0  0  0
  -11.3224   -2.2218  -22.0008 C   0  0  0  0  0  0  0  0  0  0  0  0
  -10.6290   -1.3144  -22.8110 C   0  0  0  0  0  0  0  0  0  0  0  0
  -10.8082   -2.9541  -21.3873 H   0  0  0  0  0  0  0  0  0  0  0  0
  -14.4927   -1.1560  -22.5513 H   0  0  0  0  0  0  0  0  0  0  0  0
  -13.2307    0.5357  -23.9234 H   0  0  0  0  0  0  0  0  0  0  0  0
   -7.6170   -0.4534  -24.1829 H   0  0  0  0  0  0  0  0  0  0  0  0
   -9.0044   -1.2089  -25.0287 H   0  0  0  0  0  0  0  0  0  0  0  0
   -6.9683   -3.3646  -21.2728 H   0  0  0  0  0  0  0  0  0  0  0  0
   -6.2983   -2.4015  -22.5981 H   0  0  0  0  0  0  0  0  0  0  0  0
   -9.1437   -3.3397  -22.1846 H   0  0  0  0  0  0  0  0  0  0  0  0
   -9.1002   -3.5767  -24.7086 H   0  0  0  0  0  0  0  0  0  0  0  0
   -7.4483   -2.9411  -24.7075 H   0  0  0  0  0  0  0  0  0  0  0  0
   -7.8007   -4.4787  -23.9167 H   0  0  0  0  0  0  0  0  0  0  0  0
  1  2  1  0
  2  3  1  0
  3  4  1  0
  4  5  1  0
  5  6  2  0
  6  7  1  0
  7  8  2  0
  8  9  1  0
  9 10  2  0
 10 11  1  0
 11 12  2  0
 12 13  1  0
 13 14  2  0
 13 15  1  0
 12 16  1  0
 11 17  1  0
 10 18  1  0
  8 19  1  0
  6 20  1  0
  4 21  1  0
 21 22  2  0
 21 23  1  0
 23 24  1  6
 24 25  1  0
 25 26  1  0
 26 27  1  0
 27 28  1  0
 28 29  1  0
 29 30  1  0
 30 31  1  0
 31 32  1  0
 32 33  1  0
 33 34  1  0
 33 35  1  0
 32 36  1  0
 32 37  1  0
 30 38  1  0
 30 39  1  0
 29 40  1  0
 29 41  1  0
 28 42  1  0
 27 43  1  0
 27 44  1  0
 26 45  1  0
 26 46  1  0
 25 47  1  0
 47 48  2  0
 47 49  1  0
 49 50  2  0
 50 51  1  0
 51 52  2  0
 52 53  1  0
 52 54  1  0
 54 55  2  0
 54 56  1  0
 51 57  1  0
 50 58  1  0
 24 59  1  0
 24 60  1  0
  3 61  1  0
  3 62  1  0
  2 63  1  1
  1 64  1  0
  1 65  1  0
  1 66  1  0
 23  2  1  0
 33 28  1  0
 55 49  1  0
 14  5  1  0
 55 23  1  0
 14  9  1  0
M  CHG  1  28   1
M  END
>  <cnnaffinities>  (74) 
[6.31161, 6.42082, 6.75798]

>  <score>  (74) 
6.31161

>  <index>  (74) 
76

>  <Smiles>  (74) 
C([C@]1(C(N(c2c(nc(c3c(c(c(c(c23)[H])[H])[H])[H])[H])[H])C(=O)[C@]21C(N(C(C([N+]1(C(C(OC(C1([H])[H])([H])[H])([H])[H])([H])[H])[H])([H])[H])([H])[H])C(=O)c1c(c(c(Cl)c(c21)[H])[H])[H])([H])[H])([H])[H])[H])([H])([H])[H]

>  <h>  (74) 
<NA>

>  <Training>  (74) 
True

>  <Success>  (74) 
True

>  <enamine_searched>  (74) 
False

>  <enamine_id>  (74) 
nan

$$$$

     RDKit          3D

 55 60  0  0  0  0  0  0  0  0999 V2000
  -10.4426   -1.1853  -23.2635 C   0  0  0  0  0  0  0  0  0  0  0  0
   -8.9919   -1.5134  -22.9253 C   0  0  1  0  0  0  0  0  0  0  0  0
   -8.3749   -0.5449  -21.9045 C   0  0  0  0  0  0  0  0  0  0  0  0
   -7.3629   -1.3547  -21.2459 N   0  0  0  0  0  0  0  0  0  0  0  0
   -6.5730   -0.8525  -20.1896 C   0  0  0  0  0  0  0  0  0  0  0  0
   -6.8947   -1.1054  -18.8808 C   0  0  0  0  0  0  0  0  0  0  0  0
   -6.2364   -0.5707  -17.8216 N   0  0  0  0  0  0  0  0  0  0  0  0
   -5.2130    0.2079  -18.0809 C   0  0  0  0  0  0  0  0  0  0  0  0
   -4.7524    0.5142  -19.3940 C   0  0  0  0  0  0  0  0  0  0  0  0
   -3.6228    1.3379  -19.6319 C   0  0  0  0  0  0  0  0  0  0  0  0
   -3.2213    1.6061  -20.9112 C   0  0  0  0  0  0  0  0  0  0  0  0
   -3.9209    1.0656  -22.0149 C   0  0  0  0  0  0  0  0  0  0  0  0
   -5.0161    0.2628  -21.8122 C   0  0  0  0  0  0  0  0  0  0  0  0
   -5.4556   -0.0229  -20.4928 C   0  0  0  0  0  0  0  0  0  0  0  0
   -5.5510   -0.1664  -22.6545 H   0  0  0  0  0  0  0  0  0  0  0  0
   -3.5951    1.2957  -23.0256 H   0  0  0  0  0  0  0  0  0  0  0  0
   -2.3643    2.2493  -21.0904 H   0  0  0  0  0  0  0  0  0  0  0  0
   -3.1031    1.7609  -18.7758 H   0  0  0  0  0  0  0  0  0  0  0  0
   -4.6848    0.6381  -17.2280 H   0  0  0  0  0  0  0  0  0  0  0  0
   -7.7260   -1.7642  -18.6377 H   0  0  0  0  0  0  0  0  0  0  0  0
   -7.6043   -2.7062  -21.3443 C   0  0  0  0  0  0  0  0  0  0  0  0
   -6.9913   -3.5542  -20.7252 O   0  0  0  0  0  0  0  0  0  0  0  0
   -8.7578   -2.9440  -22.3156 C   0  0  1  0  0  0  0  0  0  0  0  0
   -9.9549   -3.4256  -21.4652 C   0  0  0  0  0  0  0  0  0  0  0  0
  -11.0467   -3.9413  -22.2752 N   0  0  0  0  0  0  0  0  0  0  0  0
  -12.4137   -3.7997  -21.8263 C   0  0  0  0  0  0  0  0  0  0  0  0
  -13.2499   -2.7288  -22.4475 C   0  0  0  0  0  0  0  0  0  0  0  0
  -13.8801   -2.8747  -23.6355 C   0  0  0  0  0  0  0  0  0  0  0  0
  -14.8272   -1.9048  -23.7434 O   0  0  0  0  0  0  0  0  0  0  0  0
  -14.7190   -1.2207  -22.5875 C   0  0  0  0  0  0  0  0  0  0  0  0
  -13.7918   -1.6351  -21.7865 N   0  0  0  0  0  0  0  0  0  0  0  0
  -15.4852   -0.4822  -22.3959 H   0  0  0  0  0  0  0  0  0  0  0  0
  -13.7337   -3.5902  -24.4279 H   0  0  0  0  0  0  0  0  0  0  0  0
  -12.4793   -3.7499  -20.7399 H   0  0  0  0  0  0  0  0  0  0  0  0
  -12.9316   -4.6932  -22.1631 H   0  0  0  0  0  0  0  0  0  0  0  0
  -10.8717   -4.6086  -23.4566 C   0  0  0  0  0  0  0  0  0  0  0  0
  -11.8178   -4.9790  -24.1424 O   0  0  0  0  0  0  0  0  0  0  0  0
   -9.4557   -4.8058  -23.8711 C   0  0  0  0  0  0  0  0  0  0  0  0
   -9.1934   -5.7739  -24.8347 C   0  0  0  0  0  0  0  0  0  0  0  0
   -7.9293   -5.8943  -25.3736 C   0  0  0  0  0  0  0  0  0  0  0  0
   -6.9381   -5.0269  -24.9259 C   0  0  0  0  0  0  0  0  0  0  0  0
   -5.7270   -5.1004  -25.5015 F   0  0  0  0  0  0  0  0  0  0  0  0
   -7.1558   -4.1044  -23.9191 C   0  0  0  0  0  0  0  0  0  0  0  0
   -8.4361   -3.9941  -23.3603 C   0  0  0  0  0  0  0  0  0  0  0  0
   -6.3245   -3.4963  -23.5751 H   0  0  0  0  0  0  0  0  0  0  0  0
   -7.7128   -6.6220  -26.1455 H   0  0  0  0  0  0  0  0  0  0  0  0
  -10.0170   -6.4114  -25.1441 H   0  0  0  0  0  0  0  0  0  0  0  0
  -10.3313   -2.5585  -20.9150 H   0  0  0  0  0  0  0  0  0  0  0  0
   -9.6029   -4.1719  -20.7366 H   0  0  0  0  0  0  0  0  0  0  0  0
   -9.1234   -0.1895  -21.1794 H   0  0  0  0  0  0  0  0  0  0  0  0
   -7.9291    0.3413  -22.3671 H   0  0  0  0  0  0  0  0  0  0  0  0
   -8.3852   -1.4665  -23.8403 H   0  0  0  0  0  0  0  0  0  0  0  0
  -10.5231   -0.2198  -23.7680 H   0  0  0  0  0  0  0  0  0  0  0  0
  -10.8736   -1.9595  -23.9070 H   0  0  0  0  0  0  0  0  0  0  0  0
  -11.0531   -1.1387  -22.3551 H   0  0  0  0  0  0  0  0  0  0  0  0
  1  2  1  0
  2  3  1  0
  3  4  1  0
  4  5  1  0
  5  6  2  0
  6  7  1  0
  7  8  2  0
  8  9  1  0
  9 10  2  0
 10 11  1  0
 11 12  2  0
 12 13  1  0
 13 14  2  0
 13 15  1  0
 12 16  1  0
 11 17  1  0
 10 18  1  0
  8 19  1  0
  6 20  1  0
  4 21  1  0
 21 22  2  0
 21 23  1  0
 23 24  1  1
 24 25  1  0
 25 26  1  0
 26 27  1  0
 27 28  2  0
 28 29  1  0
 29 30  1  0
 30 31  2  0
 30 32  1  0
 28 33  1  0
 26 34  1  0
 26 35  1  0
 25 36  1  0
 36 37  2  0
 36 38  1  0
 38 39  2  0
 39 40  1  0
 40 41  2  0
 41 42  1  0
 41 43  1  0
 43 44  2  0
 43 45  1  0
 40 46  1  0
 39 47  1  0
 24 48  1  0
 24 49  1  0
  3 50  1  0
  3 51  1  0
  2 52  1  6
  1 53  1  0
  1 54  1  0
  1 55  1  0
 23  2  1  0
 31 27  1  0
 44 38  1  0
 14  5  1  0
 44 23  1  0
 14  9  1  0
M  END
>  <cnnaffinities>  (75) 
[6.68752, 5.97749]

>  <score>  (75) 
6.68752

>  <index>  (75) 
77

>  <Smiles>  (75) 
C([C@]1(C(N(c2c(nc(c3c(c(c(c(c23)[H])[H])[H])[H])[H])[H])C(=O)[C@]21C(N(C(c1c(oc(n1)[H])[H])([H])[H])C(=O)c1c(c(c(F)c(c21)[H])[H])[H])([H])[H])([H])[H])[H])([H])([H])[H]

>  <h>  (75) 
<NA>

>  <Training>  (75) 
True

>  <Success>  (75) 
True

>  <enamine_searched>  (75) 
False

>  <enamine_id>  (75) 
nan

$$$$

     RDKit          3D

 56 60  0  0  0  0  0  0  0  0999 V2000
  -14.5162   -1.5058  -23.8585 C   0  0  0  0  0  0  0  0  0  0  0  0
  -13.7041   -2.6258  -23.4276 N   0  0  0  0  0  0  0  0  0  0  0  0
  -13.2503   -2.6221  -22.1486 C   0  0  0  0  0  0  0  0  0  0  0  0
  -13.4627   -1.6951  -21.3886 O   0  0  0  0  0  0  0  0  0  0  0  0
  -12.4622   -3.8601  -21.7363 C   0  0  0  0  0  0  0  0  0  0  0  0
  -11.1078   -3.8691  -22.2666 N   0  0  0  0  0  0  0  0  0  0  0  0
   -9.9997   -3.3724  -21.4598 C   0  0  0  0  0  0  0  0  0  0  0  0
   -8.7876   -2.9224  -22.3095 C   0  0  2  0  0  0  0  0  0  0  0  0
   -7.6286   -2.7133  -21.3384 C   0  0  0  0  0  0  0  0  0  0  0  0
   -7.0446   -3.5721  -20.7072 O   0  0  0  0  0  0  0  0  0  0  0  0
   -7.3567   -1.3663  -21.2472 N   0  0  0  0  0  0  0  0  0  0  0  0
   -6.5695   -0.8671  -20.1906 C   0  0  0  0  0  0  0  0  0  0  0  0
   -6.8963   -1.1156  -18.8816 C   0  0  0  0  0  0  0  0  0  0  0  0
   -6.2416   -0.5770  -17.8225 N   0  0  0  0  0  0  0  0  0  0  0  0
   -5.2190    0.2009  -18.0848 C   0  0  0  0  0  0  0  0  0  0  0  0
   -4.7571    0.5040  -19.3982 C   0  0  0  0  0  0  0  0  0  0  0  0
   -3.6310    1.3301  -19.6357 C   0  0  0  0  0  0  0  0  0  0  0  0
   -3.2287    1.5984  -20.9136 C   0  0  0  0  0  0  0  0  0  0  0  0
   -3.9263    1.0587  -22.0177 C   0  0  0  0  0  0  0  0  0  0  0  0
   -5.0196    0.2533  -21.8170 C   0  0  0  0  0  0  0  0  0  0  0  0
   -5.4564   -0.0348  -20.4966 C   0  0  0  0  0  0  0  0  0  0  0  0
   -5.5513   -0.1728  -22.6628 H   0  0  0  0  0  0  0  0  0  0  0  0
   -3.6015    1.2928  -23.0265 H   0  0  0  0  0  0  0  0  0  0  0  0
   -2.3750    2.2449  -21.0904 H   0  0  0  0  0  0  0  0  0  0  0  0
   -3.1169    1.7546  -18.7785 H   0  0  0  0  0  0  0  0  0  0  0  0
   -4.6917    0.6365  -17.2351 H   0  0  0  0  0  0  0  0  0  0  0  0
   -7.7312   -1.7705  -18.6421 H   0  0  0  0  0  0  0  0  0  0  0  0
   -8.3599   -0.5387  -21.8986 C   0  0  0  0  0  0  0  0  0  0  0  0
   -8.9785   -1.4907  -22.9285 C   0  0  2  0  0  0  0  0  0  0  0  0
  -10.4153   -1.1381  -23.2844 C   0  0  0  0  0  0  0  0  0  0  0  0
  -11.0319   -1.1111  -22.3804 H   0  0  0  0  0  0  0  0  0  0  0  0
  -10.4851   -0.1636  -23.7741 H   0  0  0  0  0  0  0  0  0  0  0  0
  -10.8308   -1.9002  -23.9491 H   0  0  0  0  0  0  0  0  0  0  0  0
   -8.3624   -1.4612  -23.8383 H   0  0  0  0  0  0  0  0  0  0  0  0
   -7.9059    0.3473  -22.3532 H   0  0  0  0  0  0  0  0  0  0  0  0
   -9.1147   -0.1870  -21.1750 H   0  0  0  0  0  0  0  0  0  0  0  0
   -8.4971   -3.9733  -23.3515 C   0  0  0  0  0  0  0  0  0  0  0  0
   -7.2192   -4.1048  -23.9003 C   0  0  0  0  0  0  0  0  0  0  0  0
   -6.9950   -5.0321  -24.9023 C   0  0  0  0  0  0  0  0  0  0  0  0
   -5.4345   -5.1026  -25.6587 Cl  0  0  0  0  0  0  0  0  0  0  0  0
   -8.0019   -5.8805  -25.3590 C   0  0  0  0  0  0  0  0  0  0  0  0
   -9.2674   -5.7349  -24.8267 C   0  0  0  0  0  0  0  0  0  0  0  0
   -9.5302   -4.7530  -23.8751 C   0  0  0  0  0  0  0  0  0  0  0  0
  -10.9370   -4.4958  -23.4596 C   0  0  0  0  0  0  0  0  0  0  0  0
  -11.9048   -4.8022  -24.1628 O   0  0  0  0  0  0  0  0  0  0  0  0
  -10.0738   -6.3834  -25.1460 H   0  0  0  0  0  0  0  0  0  0  0  0
   -7.7969   -6.6159  -26.1321 H   0  0  0  0  0  0  0  0  0  0  0  0
   -6.3998   -3.4862  -23.5499 H   0  0  0  0  0  0  0  0  0  0  0  0
   -9.6857   -4.1429  -20.7417 H   0  0  0  0  0  0  0  0  0  0  0  0
  -10.3392   -2.4997  -20.8907 H   0  0  0  0  0  0  0  0  0  0  0  0
  -12.9811   -4.7005  -22.1999 H   0  0  0  0  0  0  0  0  0  0  0  0
  -12.4451   -3.9732  -20.6454 H   0  0  0  0  0  0  0  0  0  0  0  0
  -13.4500   -3.4013  -24.0293 H   0  0  0  0  0  0  0  0  0  0  0  0
  -13.9300   -0.5753  -23.8667 H   0  0  0  0  0  0  0  0  0  0  0  0
  -14.8938   -1.7072  -24.8605 H   0  0  0  0  0  0  0  0  0  0  0  0
  -15.3613   -1.3850  -23.1704 H   0  0  0  0  0  0  0  0  0  0  0  0
  1  2  1  0
  2  3  1  0
  3  4  2  0
  3  5  1  0
  5  6  1  0
  6  7  1  0
  8  7  1  1
  8  9  1  0
  9 10  2  0
  9 11  1  0
 11 12  1  0
 12 13  2  0
 13 14  1  0
 14 15  2  0
 15 16  1  0
 16 17  2  0
 17 18  1  0
 18 19  2  0
 19 20  1  0
 20 21  2  0
 20 22  1  0
 19 23  1  0
 18 24  1  0
 17 25  1  0
 15 26  1  0
 13 27  1  0
 11 28  1  0
 28 29  1  0
 29 30  1  0
 30 31  1  0
 30 32  1  0
 30 33  1  0
 29 34  1  6
 28 35  1  0
 28 36  1  0
  8 37  1  0
 37 38  2  0
 38 39  1  0
 39 40  1  0
 39 41  2  0
 41 42  1  0
 42 43  2  0
 43 44  1  0
 44 45  2  0
 42 46  1  0
 41 47  1  0
 38 48  1  0
  7 49  1  0
  7 50  1  0
  5 51  1  0
  5 52  1  0
  2 53  1  0
  1 54  1  0
  1 55  1  0
  1 56  1  0
 44  6  1  0
 29  8  1  0
 43 37  1  0
 21 12  1  0
 21 16  1  0
M  END
>  <cnnaffinities>  (76) 
[6.55497, 6.31678]

>  <score>  (76) 
6.55497

>  <index>  (76) 
78

>  <Smiles>  (76) 
C(N(C(=O)C(N1C([C@@]2(C(=O)N(c3c(nc(c4c(c(c(c(c34)[H])[H])[H])[H])[H])[H])C([C@@]2(C([H])([H])[H])[H])([H])[H])c2c(c(Cl)c(c(c2C1=O)[H])[H])[H])([H])[H])([H])[H])[H])([H])([H])[H]

>  <h>  (76) 
<NA>

>  <Training>  (76) 
True

>  <Success>  (76) 
True

>  <enamine_searched>  (76) 
False

>  <enamine_id>  (76) 
nan

$$$$

     RDKit          3D

 45 49  0  0  0  0  0  0  0  0999 V2000
   -7.3088   -4.0841  -23.6493 C   0  0  0  0  0  0  0  0  0  0  0  0
   -7.4511   -2.9881  -22.7258 N   0  0  0  0  0  0  0  0  0  0  0  0
   -6.4403   -2.5296  -21.9250 C   0  0  0  0  0  0  0  0  0  0  0  0
   -5.3108   -2.9557  -21.8260 O   0  0  0  0  0  0  0  0  0  0  0  0
   -6.9746   -1.4357  -21.2170 N   0  0  0  0  0  0  0  0  0  0  0  0
   -6.2830   -0.7827  -20.1638 C   0  0  0  0  0  0  0  0  0  0  0  0
   -6.6693   -0.9930  -18.8646 C   0  0  0  0  0  0  0  0  0  0  0  0
   -6.0486   -0.4606  -17.7826 N   0  0  0  0  0  0  0  0  0  0  0  0
   -5.0134    0.3115  -18.0100 C   0  0  0  0  0  0  0  0  0  0  0  0
   -4.5148    0.6206  -19.3075 C   0  0  0  0  0  0  0  0  0  0  0  0
   -3.3953    1.4739  -19.4930 C   0  0  0  0  0  0  0  0  0  0  0  0
   -2.9823    1.8030  -20.7546 C   0  0  0  0  0  0  0  0  0  0  0  0
   -3.6565    1.2915  -21.8869 C   0  0  0  0  0  0  0  0  0  0  0  0
   -4.7289    0.4462  -21.7337 C   0  0  0  0  0  0  0  0  0  0  0  0
   -5.1754    0.0793  -20.4320 C   0  0  0  0  0  0  0  0  0  0  0  0
   -5.2496    0.0665  -22.6072 H   0  0  0  0  0  0  0  0  0  0  0  0
   -3.3311    1.5840  -22.8829 H   0  0  0  0  0  0  0  0  0  0  0  0
   -2.1414    2.4770  -20.8967 H   0  0  0  0  0  0  0  0  0  0  0  0
   -2.9049    1.8811  -18.6123 H   0  0  0  0  0  0  0  0  0  0  0  0
   -4.5171    0.7436  -17.1411 H   0  0  0  0  0  0  0  0  0  0  0  0
   -7.5220   -1.6350  -18.6566 H   0  0  0  0  0  0  0  0  0  0  0  0
   -8.3274   -1.2473  -21.4896 C   0  0  0  0  0  0  0  0  0  0  0  0
   -9.0141   -0.3506  -21.0569 O   0  0  0  0  0  0  0  0  0  0  0  0
   -8.7178   -2.3993  -22.3915 C   0  0  0  0  0  0  0  0  0  0  0  0
   -9.7710   -3.3323  -21.7479 C   0  0  0  0  0  0  0  0  0  0  0  0
  -10.7845   -2.7576  -22.6444 N   0  0  0  0  0  0  0  0  0  0  0  0
  -12.0233   -3.7029  -23.2046 S   0  0  0  0  0  0  0  0  0  0  0  0
  -13.0080   -3.8614  -22.1468 O   0  0  0  0  0  0  0  0  0  0  0  0
  -11.5658   -4.8243  -24.0113 O   0  0  0  0  0  0  0  0  0  0  0  0
  -14.1969   -3.7216  -25.1818 C   0  0  0  0  0  0  0  0  0  0  0  0
  -13.3276   -2.9405  -25.7735 C   0  0  0  0  0  0  0  0  0  0  0  0
  -14.4456   -3.7085  -25.2352 C   0  0  0  0  0  0  0  0  0  0  0  0
  -14.1716   -4.9677  -25.2972 H   0  0  0  0  0  0  0  0  0  0  0  0
  -15.9502   -3.6683  -25.8096 H   0  0  0  0  0  0  0  0  0  0  0  0
  -12.6404   -3.0455  -26.6327 H   0  0  0  0  0  0  0  0  0  0  0  0
  -13.7753   -2.2133  -25.3010 H   0  0  0  0  0  0  0  0  0  0  0  0
  -14.4383   -3.5687  -23.9720 H   0  0  0  0  0  0  0  0  0  0  0  0
   -9.7691   -2.0703  -23.4710 C   0  0  0  0  0  0  0  0  0  0  0  0
   -9.5664   -2.5579  -24.4355 H   0  0  0  0  0  0  0  0  0  0  0  0
   -9.9874   -1.0053  -23.6039 H   0  0  0  0  0  0  0  0  0  0  0  0
   -9.5870   -4.4035  -21.8984 H   0  0  0  0  0  0  0  0  0  0  0  0
   -9.9322   -3.1400  -20.6958 H   0  0  0  0  0  0  0  0  0  0  0  0
   -7.6472   -3.7897  -24.6495 H   0  0  0  0  0  0  0  0  0  0  0  0
   -7.8855   -4.9576  -23.3244 H   0  0  0  0  0  0  0  0  0  0  0  0
   -6.2510   -4.3469  -23.6807 H   0  0  0  0  0  0  0  0  0  0  0  0
  1  2  1  0
  2  3  1  0
  3  4  2  0
  3  5  1  0
  5  6  1  0
  6  7  2  0
  7  8  1  0
  8  9  2  0
  9 10  1  0
 10 11  2  0
 11 12  1  0
 12 13  2  0
 13 14  1  0
 14 15  2  0
 14 16  1  0
 13 17  1  0
 12 18  1  0
 11 19  1  0
  9 20  1  0
  7 21  1  0
  5 22  1  0
 22 23  2  0
 22 24  1  0
 24 25  1  0
 25 26  1  0
 26 27  1  0
 27 28  2  0
 27 29  2  0
 27 30  1  0
 30 31  1  0
 31 32  1  0
 32 33  1  0
 32 34  1  0
 31 35  1  0
 31 36  1  0
 30 37  1  0
 26 38  1  0
 38 39  1  0
 38 40  1  0
 25 41  1  0
 25 42  1  0
  1 43  1  0
  1 44  1  0
  1 45  1  0
 24  2  1  0
 32 30  1  0
 15  6  1  0
 38 24  1  0
 15 10  1  0
M  END
>  <cnnaffinities>  (77) 
[5.91543]

>  <score>  (77) 
5.91543

>  <index>  (77) 
79

>  <Smiles>  (77) 
C(N1C(=O)N(c2c(nc(c3c(c(c(c(c23)[H])[H])[H])[H])[H])[H])C(=O)C21C(N(S(=O)(=O)C1(C(C1([H])[H])([H])[H])[H])C2([H])[H])([H])[H])([H])([H])[H]

>  <h>  (77) 
<NA>

>  <Training>  (77) 
True

>  <Success>  (77) 
True

>  <enamine_searched>  (77) 
False

>  <enamine_id>  (77) 
nan

$$$$

     RDKit          3D

 60 65  0  0  0  0  0  0  0  0999 V2000
   -8.4910    2.1985  -28.9528 C   0  0  0  0  0  0  0  0  0  0  0  0
   -8.7273    2.2339  -27.5142 N   0  0  0  0  0  0  0  0  0  0  0  0
   -7.9131    1.5366  -26.6785 C   0  0  0  0  0  0  0  0  0  0  0  0
   -6.9271    0.9320  -27.0859 O   0  0  0  0  0  0  0  0  0  0  0  0
   -8.2743    1.5932  -25.1909 C   0  0  0  0  0  0  0  0  0  0  0  0
   -9.0370    0.4957  -24.6531 N   0  0  0  0  0  0  0  0  0  0  0  0
   -8.3800   -0.7705  -24.3811 C   0  0  0  0  0  0  0  0  0  0  0  0
   -8.8873   -1.4261  -23.0681 C   0  0  2  0  0  0  0  0  0  0  0  0
   -8.3666   -0.6352  -21.8429 C   0  0  0  0  0  0  0  0  0  0  0  0
   -8.7091    0.4769  -21.4854 O   0  0  0  0  0  0  0  0  0  0  0  0
   -7.4141   -1.3866  -21.1934 N   0  0  0  0  0  0  0  0  0  0  0  0
   -6.6066   -0.8143  -20.1707 C   0  0  0  0  0  0  0  0  0  0  0  0
   -6.9076   -1.0484  -18.8562 C   0  0  0  0  0  0  0  0  0  0  0  0
   -6.2042   -0.5507  -17.8076 N   0  0  0  0  0  0  0  0  0  0  0  0
   -5.1699    0.2064  -18.0819 C   0  0  0  0  0  0  0  0  0  0  0  0
   -4.7349    0.5245  -19.4001 C   0  0  0  0  0  0  0  0  0  0  0  0
   -3.6045    1.3527  -19.6427 C   0  0  0  0  0  0  0  0  0  0  0  0
   -3.2098    1.6374  -20.9198 C   0  0  0  0  0  0  0  0  0  0  0  0
   -3.9213    1.0962  -22.0148 C   0  0  0  0  0  0  0  0  0  0  0  0
   -5.0118    0.2863  -21.8056 C   0  0  0  0  0  0  0  0  0  0  0  0
   -5.4654   -0.0075  -20.4879 C   0  0  0  0  0  0  0  0  0  0  0  0
   -5.5397   -0.1316  -22.6582 H   0  0  0  0  0  0  0  0  0  0  0  0
   -3.6159    1.3383  -23.0289 H   0  0  0  0  0  0  0  0  0  0  0  0
   -2.3595    2.2912  -21.0974 H   0  0  0  0  0  0  0  0  0  0  0  0
   -3.0819    1.7700  -18.7849 H   0  0  0  0  0  0  0  0  0  0  0  0
   -4.6211    0.6133  -17.2309 H   0  0  0  0  0  0  0  0  0  0  0  0
   -7.7568   -1.6744  -18.5912 H   0  0  0  0  0  0  0  0  0  0  0  0
   -7.1014   -2.6422  -21.8457 C   0  0  0  0  0  0  0  0  0  0  0  0
   -8.2648   -2.8493  -22.8394 C   0  0  2  0  0  0  0  0  0  0  0  0
   -7.8270   -3.6354  -24.0818 C   0  0  0  0  0  0  0  0  0  0  0  0
   -8.6459   -3.7757  -24.7960 H   0  0  0  0  0  0  0  0  0  0  0  0
   -7.0112   -3.1227  -24.6057 H   0  0  0  0  0  0  0  0  0  0  0  0
   -7.4580   -4.6290  -23.8030 H   0  0  0  0  0  0  0  0  0  0  0  0
   -9.0392   -3.4263  -22.3303 H   0  0  0  0  0  0  0  0  0  0  0  0
   -7.0197   -3.4456  -21.1031 H   0  0  0  0  0  0  0  0  0  0  0  0
   -6.1373   -2.5902  -22.3760 H   0  0  0  0  0  0  0  0  0  0  0  0
  -10.4094   -1.3825  -23.0706 C   0  0  0  0  0  0  0  0  0  0  0  0
  -11.1290   -2.1685  -22.1567 C   0  0  0  0  0  0  0  0  0  0  0  0
  -12.5103   -2.1282  -22.1447 C   0  0  0  0  0  0  0  0  0  0  0  0
  -13.3937   -3.1135  -21.0156 Cl  0  0  0  0  0  0  0  0  0  0  0  0
  -13.2158   -1.2993  -23.0159 C   0  0  0  0  0  0  0  0  0  0  0  0
  -12.5130   -0.4625  -23.8607 C   0  0  0  0  0  0  0  0  0  0  0  0
  -11.1173   -0.4716  -23.8729 C   0  0  0  0  0  0  0  0  0  0  0  0
  -10.4060    0.5708  -24.6828 C   0  0  0  0  0  0  0  0  0  0  0  0
  -10.9860    1.4601  -25.2924 O   0  0  0  0  0  0  0  0  0  0  0  0
  -13.0186    0.2488  -24.5040 H   0  0  0  0  0  0  0  0  0  0  0  0
  -14.2990   -1.2894  -22.9848 H   0  0  0  0  0  0  0  0  0  0  0  0
  -10.6329   -2.7964  -21.4232 H   0  0  0  0  0  0  0  0  0  0  0  0
   -8.5668   -1.4646  -25.2141 H   0  0  0  0  0  0  0  0  0  0  0  0
   -7.3117   -0.5632  -24.3162 H   0  0  0  0  0  0  0  0  0  0  0  0
   -8.4370    2.9443  -24.5487 C   0  0  0  0  0  0  0  0  0  0  0  0
   -7.1865    2.1474  -24.3053 C   0  0  0  0  0  0  0  0  0  0  0  0
   -6.2609    2.4404  -24.7976 H   0  0  0  0  0  0  0  0  0  0  0  0
   -7.0758    1.6681  -23.3356 H   0  0  0  0  0  0  0  0  0  0  0  0
   -8.4014    3.8258  -25.1863 H   0  0  0  0  0  0  0  0  0  0  0  0
   -9.1552    3.0175  -23.7369 H   0  0  0  0  0  0  0  0  0  0  0  0
   -9.5976    2.5930  -27.1406 H   0  0  0  0  0  0  0  0  0  0  0  0
   -9.2797    2.7701  -29.4500 H   0  0  0  0  0  0  0  0  0  0  0  0
   -8.4872    1.1698  -29.3383 H   0  0  0  0  0  0  0  0  0  0  0  0
   -7.5154    2.6354  -29.2066 H   0  0  0  0  0  0  0  0  0  0  0  0
  1  2  1  0
  2  3  1  0
  3  4  2  0
  3  5  1  0
  5  6  1  0
  6  7  1  0
  8  7  1  6
  8  9  1  0
  9 10  2  0
  9 11  1  0
 11 12  1  0
 12 13  2  0
 13 14  1  0
 14 15  2  0
 15 16  1  0
 16 17  2  0
 17 18  1  0
 18 19  2  0
 19 20  1  0
 20 21  2  0
 20 22  1  0
 19 23  1  0
 18 24  1  0
 17 25  1  0
 15 26  1  0
 13 27  1  0
 11 28  1  0
 28 29  1  0
 29 30  1  0
 30 31  1  0
 30 32  1  0
 30 33  1  0
 29 34  1  1
 28 35  1  0
 28 36  1  0
  8 37  1  0
 37 38  2  0
 38 39  1  0
 39 40  1  0
 39 41  2  0
 41 42  1  0
 42 43  2  0
 43 44  1  0
 44 45  2  0
 42 46  1  0
 41 47  1  0
 38 48  1  0
  7 49  1  0
  7 50  1  0
  5 51  1  0
 51 52  1  0
 52 53  1  0
 52 54  1  0
 51 55  1  0
 51 56  1  0
  2 57  1  0
  1 58  1  0
  1 59  1  0
  1 60  1  0
 52  5  1  0
 44  6  1  0
 29  8  1  0
 43 37  1  0
 21 12  1  0
 21 16  1  0
M  END
>  <cnnaffinities>  (78) 
[6.33216]

>  <score>  (78) 
6.33216

>  <index>  (78) 
80

>  <Smiles>  (78) 
C(N(C(=O)C1(N2C([C@@]3(C(=O)N(c4c(nc(c5c(c(c(c(c45)[H])[H])[H])[H])[H])[H])C([C@@]3(C([H])([H])[H])[H])([H])[H])c3c(c(Cl)c(c(c3C2=O)[H])[H])[H])([H])[H])C(C1([H])[H])([H])[H])[H])([H])([H])[H]

>  <h>  (78) 
<NA>

>  <Training>  (78) 
True

>  <Success>  (78) 
True

>  <enamine_searched>  (78) 
False

>  <enamine_id>  (78) 
nan

$$$$

     RDKit          3D

 36 38  0  0  0  0  0  0  0  0999 V2000
   -8.8877    0.4658  -21.2332 O   0  0  0  0  0  0  0  0  0  0  0  0
   -8.3517   -0.3650  -21.9401 C   0  0  0  0  0  0  0  0  0  0  0  0
   -7.4201   -1.4153  -21.2870 C   0  0  0  0  0  0  0  0  0  0  0  0
   -6.5771   -0.8233  -20.1801 C   0  0  0  0  0  0  0  0  0  0  0  0
   -6.8790   -1.0371  -18.8587 C   0  0  0  0  0  0  0  0  0  0  0  0
   -6.1941   -0.5337  -17.7943 N   0  0  0  0  0  0  0  0  0  0  0  0
   -5.1570    0.2221  -18.0636 C   0  0  0  0  0  0  0  0  0  0  0  0
   -4.7205    0.5324  -19.3797 C   0  0  0  0  0  0  0  0  0  0  0  0
   -3.5953    1.3605  -19.6224 C   0  0  0  0  0  0  0  0  0  0  0  0
   -3.2061    1.6534  -20.9017 C   0  0  0  0  0  0  0  0  0  0  0  0
   -3.9300    1.1232  -21.9945 C   0  0  0  0  0  0  0  0  0  0  0  0
   -5.0221    0.3178  -21.7874 C   0  0  0  0  0  0  0  0  0  0  0  0
   -5.4488   -0.0007  -20.4716 C   0  0  0  0  0  0  0  0  0  0  0  0
   -5.5688   -0.0717  -22.6419 H   0  0  0  0  0  0  0  0  0  0  0  0
   -3.6180    1.3621  -23.0055 H   0  0  0  0  0  0  0  0  0  0  0  0
   -2.3514    2.2984  -21.0874 H   0  0  0  0  0  0  0  0  0  0  0  0
   -3.0595    1.7763  -18.7728 H   0  0  0  0  0  0  0  0  0  0  0  0
   -4.6017    0.6273  -17.2158 H   0  0  0  0  0  0  0  0  0  0  0  0
   -7.7287   -1.6601  -18.5861 H   0  0  0  0  0  0  0  0  0  0  0  0
   -8.0718   -2.1847  -20.8502 H   0  0  0  0  0  0  0  0  0  0  0  0
   -6.7872   -1.9315  -22.0162 H   0  0  0  0  0  0  0  0  0  0  0  0
   -8.5770   -0.3746  -23.3093 N   0  0  0  0  0  0  0  0  0  0  0  0
   -8.1667   -1.4696  -24.1739 C   0  0  0  0  0  0  0  0  0  0  0  0
   -8.9278   -2.7524  -23.9678 C   0  0  0  0  0  0  0  0  0  0  0  0
  -10.2501   -2.8319  -23.7984 C   0  0  0  0  0  0  0  0  0  0  0  0
  -11.2390   -1.7330  -23.7544 C   0  0  0  0  0  0  0  0  0  0  0  0
  -11.0538   -0.4078  -23.7410 C   0  0  0  0  0  0  0  0  0  0  0  0
   -9.7524    0.3540  -23.7832 C   0  0  0  0  0  0  0  0  0  0  0  0
   -9.5507    0.6387  -24.8223 H   0  0  0  0  0  0  0  0  0  0  0  0
   -9.8397    1.2856  -23.2182 H   0  0  0  0  0  0  0  0  0  0  0  0
  -11.9435    0.2249  -23.6935 H   0  0  0  0  0  0  0  0  0  0  0  0
  -12.2698   -2.0823  -23.7239 H   0  0  0  0  0  0  0  0  0  0  0  0
  -10.6868   -3.8229  -23.6921 H   0  0  0  0  0  0  0  0  0  0  0  0
   -8.3432   -3.6728  -23.9658 H   0  0  0  0  0  0  0  0  0  0  0  0
   -8.3307   -1.1144  -25.1977 H   0  0  0  0  0  0  0  0  0  0  0  0
   -7.0872   -1.6255  -24.0880 H   0  0  0  0  0  0  0  0  0  0  0  0
  1  2  2  0
  2  3  1  0
  3  4  1  0
  4  5  2  0
  5  6  1  0
  6  7  2  0
  7  8  1  0
  8  9  2  0
  9 10  1  0
 10 11  2  0
 11 12  1  0
 12 13  2  0
 12 14  1  0
 11 15  1  0
 10 16  1  0
  9 17  1  0
  7 18  1  0
  5 19  1  0
  3 20  1  0
  3 21  1  0
  2 22  1  0
 22 23  1  0
 23 24  1  0
 24 25  2  0
 25 26  1  0
 26 27  2  0
 27 28  1  0
 28 29  1  0
 28 30  1  0
 27 31  1  0
 26 32  1  0
 25 33  1  0
 24 34  1  0
 23 35  1  0
 23 36  1  0
 13  4  1  0
 28 22  1  0
 13  8  1  0
M  END
>  <cnnaffinities>  (79) 
[4.99326, 4.99393, 4.86121, 4.93399, 4.66992]

>  <score>  (79) 
4.99326

>  <index>  (79) 
81

>  <Smiles>  (79) 
O=C(C(c1c(nc(c2c(c(c(c(c12)[H])[H])[H])[H])[H])[H])([H])[H])N1C(C(=C(C(=C(C1([H])[H])[H])[H])[H])[H])([H])[H]

>  <h>  (79) 
<NA>

>  <Training>  (79) 
True

>  <Success>  (79) 
True

>  <enamine_searched>  (79) 
False

>  <enamine_id>  (79) 
nan

$$$$

     RDKit          3D

 54 57  0  0  0  0  0  0  0  0999 V2000
  -10.6452    0.3975  -25.3001 C   0  0  0  0  0  0  0  0  0  0  0  0
   -9.7733   -0.5949  -24.8288 O   0  0  0  0  0  0  0  0  0  0  0  0
   -8.4666   -0.5214  -25.1876 C   0  0  0  0  0  0  0  0  0  0  0  0
   -7.9454    0.5040  -25.9787 C   0  0  0  0  0  0  0  0  0  0  0  0
   -6.5797    0.5349  -26.2425 C   0  0  0  0  0  0  0  0  0  0  0  0
   -5.7584   -0.4562  -25.7253 C   0  0  0  0  0  0  0  0  0  0  0  0
   -6.2994   -1.4791  -24.9453 C   0  0  0  0  0  0  0  0  0  0  0  0
   -7.6565   -1.5516  -24.6744 C   0  0  0  0  0  0  0  0  0  0  0  0
   -8.3041   -2.6623  -23.8360 C   0  0  1  0  0  0  0  0  0  0  0  0
   -9.1463   -3.6448  -24.6843 C   0  0  0  0  0  0  0  0  0  0  0  0
   -8.4063   -4.8559  -25.2691 C   0  0  1  0  0  0  0  0  0  0  0  0
   -7.5036   -4.5304  -26.4665 C   0  0  0  0  0  0  0  0  0  0  0  0
   -6.6795   -3.8628  -26.1901 H   0  0  0  0  0  0  0  0  0  0  0  0
   -7.0696   -5.4478  -26.8860 H   0  0  0  0  0  0  0  0  0  0  0  0
   -8.0767   -4.0363  -27.2612 H   0  0  0  0  0  0  0  0  0  0  0  0
   -7.6725   -5.5516  -24.1189 C   0  0  0  0  0  0  0  0  0  0  0  0
   -6.7138   -4.6070  -23.4029 C   0  0  0  0  0  0  0  0  0  0  0  0
   -7.3602   -3.3673  -22.9598 N   0  0  0  0  0  0  0  0  0  0  0  0
   -6.7491   -2.7495  -21.8879 C   0  0  0  0  0  0  0  0  0  0  0  0
   -5.7347   -3.2136  -21.3926 O   0  0  0  0  0  0  0  0  0  0  0  0
   -7.3981   -1.4815  -21.2915 C   0  0  0  0  0  0  0  0  0  0  0  0
   -6.5733   -0.8489  -20.1944 C   0  0  0  0  0  0  0  0  0  0  0  0
   -6.8771   -1.0588  -18.8758 C   0  0  0  0  0  0  0  0  0  0  0  0
   -6.2019   -0.5447  -17.8103 N   0  0  0  0  0  0  0  0  0  0  0  0
   -5.1647    0.2127  -18.0753 C   0  0  0  0  0  0  0  0  0  0  0  0
   -4.7219    0.5171  -19.3888 C   0  0  0  0  0  0  0  0  0  0  0  0
   -3.5957    1.3455  -19.6262 C   0  0  0  0  0  0  0  0  0  0  0  0
   -3.1981    1.6221  -20.9038 C   0  0  0  0  0  0  0  0  0  0  0  0
   -3.9068    1.0847  -21.9986 C   0  0  0  0  0  0  0  0  0  0  0  0
   -5.0019    0.2799  -21.7979 C   0  0  0  0  0  0  0  0  0  0  0  0
   -5.4405   -0.0260  -20.4824 C   0  0  0  0  0  0  0  0  0  0  0  0
   -5.5437   -0.1229  -22.6501 H   0  0  0  0  0  0  0  0  0  0  0  0
   -3.5886    1.3207  -23.0122 H   0  0  0  0  0  0  0  0  0  0  0  0
   -2.3429    2.2691  -21.0815 H   0  0  0  0  0  0  0  0  0  0  0  0
   -3.0753    1.7654  -18.7678 H   0  0  0  0  0  0  0  0  0  0  0  0
   -4.6191    0.6249  -17.2225 H   0  0  0  0  0  0  0  0  0  0  0  0
   -7.7298   -1.6792  -18.5955 H   0  0  0  0  0  0  0  0  0  0  0  0
   -7.6142   -0.7620  -22.0923 H   0  0  0  0  0  0  0  0  0  0  0  0
   -8.3731   -1.7815  -20.8809 H   0  0  0  0  0  0  0  0  0  0  0  0
   -6.3184   -5.0732  -22.5004 H   0  0  0  0  0  0  0  0  0  0  0  0
   -5.8437   -4.3919  -24.0459 H   0  0  0  0  0  0  0  0  0  0  0  0
   -8.4139   -5.9220  -23.3962 H   0  0  0  0  0  0  0  0  0  0  0  0
   -7.1062   -6.4178  -24.4940 H   0  0  0  0  0  0  0  0  0  0  0  0
   -9.1801   -5.5494  -25.6315 H   0  0  0  0  0  0  0  0  0  0  0  0
   -9.6212   -3.0682  -25.4862 H   0  0  0  0  0  0  0  0  0  0  0  0
   -9.9445   -4.0276  -24.0328 H   0  0  0  0  0  0  0  0  0  0  0  0
   -9.0270   -2.1631  -23.1816 H   0  0  0  0  0  0  0  0  0  0  0  0
   -5.6537   -2.2595  -24.5486 H   0  0  0  0  0  0  0  0  0  0  0  0
   -4.6926   -0.4557  -25.9237 H   0  0  0  0  0  0  0  0  0  0  0  0
   -6.1624    1.3419  -26.8440 H   0  0  0  0  0  0  0  0  0  0  0  0
   -8.5904    1.2830  -26.3727 H   0  0  0  0  0  0  0  0  0  0  0  0
  -11.6269    0.0654  -24.9574 H   0  0  0  0  0  0  0  0  0  0  0  0
  -10.5921    0.4676  -26.3933 H   0  0  0  0  0  0  0  0  0  0  0  0
  -10.4066    1.3822  -24.8748 H   0  0  0  0  0  0  0  0  0  0  0  0
  1  2  1  0
  2  3  1  0
  3  4  2  0
  4  5  1  0
  5  6  2  0
  6  7  1  0
  7  8  2  0
  8  9  1  0
  9 10  1  0
 10 11  1  0
 11 12  1  0
 12 13  1  0
 12 14  1  0
 12 15  1  0
 11 16  1  0
 16 17  1  0
 17 18  1  0
 18 19  1  0
 19 20  2  0
 19 21  1  0
 21 22  1  0
 22 23  2  0
 23 24  1  0
 24 25  2  0
 25 26  1  0
 26 27  2  0
 27 28  1  0
 28 29  2  0
 29 30  1  0
 30 31  2  0
 30 32  1  0
 29 33  1  0
 28 34  1  0
 27 35  1  0
 25 36  1  0
 23 37  1  0
 21 38  1  0
 21 39  1  0
 17 40  1  0
 17 41  1  0
 16 42  1  0
 16 43  1  0
 11 44  1  6
 10 45  1  0
 10 46  1  0
  9 47  1  1
  7 48  1  0
  6 49  1  0
  5 50  1  0
  4 51  1  0
  1 52  1  0
  1 53  1  0
  1 54  1  0
  8  3  1  0
 18  9  1  0
 31 22  1  0
 31 26  1  0
M  END
>  <cnnaffinities>  (80) 
[5.58927, 5.74711, 5.52043, 5.57982]

>  <score>  (80) 
5.58927

>  <index>  (80) 
82

>  <Smiles>  (80) 
C(Oc1c(c(c(c(c1[C@]1(C([C@@](C([H])([H])[H])(C(C(N1C(=O)C(c1c(nc(c2c(c(c(c(c12)[H])[H])[H])[H])[H])[H])([H])[H])([H])[H])([H])[H])[H])([H])[H])[H])[H])[H])[H])[H])([H])([H])[H]

>  <h>  (80) 
<NA>

>  <Training>  (80) 
True

>  <Success>  (80) 
True

>  <enamine_searched>  (80) 
False

>  <enamine_id>  (80) 
nan

$$$$

     RDKit          3D

 46 50  0  0  0  0  0  0  0  0999 V2000
   -3.6234   -1.0696  -25.3625 N   0  0  0  0  0  0  0  0  0  0  0  0
   -4.5234   -2.0083  -26.3778 S   0  0  0  0  0  0  0  0  0  0  0  0
   -4.2899   -3.3668  -25.9193 O   0  0  0  0  0  0  0  0  0  0  0  0
   -4.1875   -1.5758  -27.7221 O   0  0  0  0  0  0  0  0  0  0  0  0
   -6.2296   -1.5830  -26.0921 C   0  0  0  0  0  0  0  0  0  0  0  0
   -6.9806   -0.9831  -27.1006 C   0  0  0  0  0  0  0  0  0  0  0  0
   -8.2931   -0.6245  -26.8493 C   0  0  0  0  0  0  0  0  0  0  0  0
   -8.8570   -0.8475  -25.5902 C   0  0  0  0  0  0  0  0  0  0  0  0
   -8.1057   -1.4516  -24.5793 C   0  0  0  0  0  0  0  0  0  0  0  0
   -6.7846   -1.8065  -24.8412 C   0  0  0  0  0  0  0  0  0  0  0  0
   -6.1900   -2.2803  -24.0659 H   0  0  0  0  0  0  0  0  0  0  0  0
   -8.6877   -1.6816  -23.1984 C   0  0  1  0  0  0  0  0  0  0  0  0
  -10.2233   -1.5935  -23.2538 C   0  0  0  0  0  0  0  0  0  0  0  0
  -10.6711   -0.4110  -24.0992 C   0  0  0  0  0  0  0  0  0  0  0  0
  -10.1569   -0.4807  -25.4303 O   0  0  0  0  0  0  0  0  0  0  0  0
  -10.3673    0.5324  -23.6263 H   0  0  0  0  0  0  0  0  0  0  0  0
  -11.7576   -0.4209  -24.2260 H   0  0  0  0  0  0  0  0  0  0  0  0
  -10.6029   -1.5122  -22.2323 H   0  0  0  0  0  0  0  0  0  0  0  0
  -10.6185   -2.5244  -23.6842 H   0  0  0  0  0  0  0  0  0  0  0  0
   -8.2577   -2.9200  -22.5936 N   0  0  0  0  0  0  0  0  0  0  0  0
   -7.5152   -2.7860  -21.4590 C   0  0  0  0  0  0  0  0  0  0  0  0
   -7.0191   -3.6643  -20.7950 O   0  0  0  0  0  0  0  0  0  0  0  0
   -7.4056   -1.3998  -21.2203 N   0  0  0  0  0  0  0  0  0  0  0  0
   -6.5919   -0.8338  -20.1966 C   0  0  0  0  0  0  0  0  0  0  0  0
   -6.9027   -1.0674  -18.8811 C   0  0  0  0  0  0  0  0  0  0  0  0
   -6.2171   -0.5462  -17.8349 N   0  0  0  0  0  0  0  0  0  0  0  0
   -5.1802    0.2096  -18.0983 C   0  0  0  0  0  0  0  0  0  0  0  0
   -4.7316    0.5148  -19.4106 C   0  0  0  0  0  0  0  0  0  0  0  0
   -3.5967    1.3387  -19.6396 C   0  0  0  0  0  0  0  0  0  0  0  0
   -3.1806    1.6041  -20.9145 C   0  0  0  0  0  0  0  0  0  0  0  0
   -3.8785    1.0470  -22.0117 C   0  0  0  0  0  0  0  0  0  0  0  0
   -4.9773    0.2495  -21.8172 C   0  0  0  0  0  0  0  0  0  0  0  0
   -5.4472   -0.0266  -20.5022 C   0  0  0  0  0  0  0  0  0  0  0  0
   -5.5174   -0.1672  -22.6659 H   0  0  0  0  0  0  0  0  0  0  0  0
   -3.5448    1.2667  -23.0211 H   0  0  0  0  0  0  0  0  0  0  0  0
   -2.3217    2.2469  -21.0881 H   0  0  0  0  0  0  0  0  0  0  0  0
   -3.0798    1.7606  -18.7825 H   0  0  0  0  0  0  0  0  0  0  0  0
   -4.6340    0.6119  -17.2449 H   0  0  0  0  0  0  0  0  0  0  0  0
   -7.7512   -1.6917  -18.6130 H   0  0  0  0  0  0  0  0  0  0  0  0
   -8.0986   -0.6733  -22.1921 C   0  0  0  0  0  0  0  0  0  0  0  0
   -8.2059    0.5260  -22.2293 O   0  0  0  0  0  0  0  0  0  0  0  0
   -8.4557   -3.8264  -22.9855 H   0  0  0  0  0  0  0  0  0  0  0  0
   -8.9122   -0.1745  -27.6159 H   0  0  0  0  0  0  0  0  0  0  0  0
   -6.5255   -0.8139  -28.0700 H   0  0  0  0  0  0  0  0  0  0  0  0
   -3.7493   -0.0798  -25.5419 H   0  0  0  0  0  0  0  0  0  0  0  0
   -3.7100   -1.3641  -24.3958 H   0  0  0  0  0  0  0  0  0  0  0  0
  1  2  1  0
  2  3  2  0
  2  4  2  0
  2  5  1  0
  5  6  2  0
  6  7  1  0
  7  8  2  0
  8  9  1  0
  9 10  2  0
 10 11  1  0
  9 12  1  0
 12 13  1  0
 13 14  1  0
 14 15  1  0
 14 16  1  0
 14 17  1  0
 13 18  1  0
 13 19  1  0
 12 20  1  1
 20 21  1  0
 21 22  2  0
 21 23  1  0
 23 24  1  0
 24 25  2  0
 25 26  1  0
 26 27  2  0
 27 28  1  0
 28 29  2  0
 29 30  1  0
 30 31  2  0
 31 32  1  0
 32 33  2  0
 32 34  1  0
 31 35  1  0
 30 36  1  0
 29 37  1  0
 27 38  1  0
 25 39  1  0
 23 40  1  0
 40 41  2  0
 20 42  1  0
  7 43  1  0
  6 44  1  0
  1 45  1  0
  1 46  1  0
 10  5  1  0
 40 12  1  0
 15  8  1  0
 33 24  1  0
 33 28  1  0
M  END
>  <cnnaffinities>  (81) 
[5.43354]

>  <score>  (81) 
5.43354

>  <index>  (81) 
83

>  <Smiles>  (81) 
N(S(=O)(=O)c1c(c(c2c(c1[H])[C@@]1(C(C(O2)([H])[H])([H])[H])N(C(=O)N(c2c(nc(c3c(c(c(c(c23)[H])[H])[H])[H])[H])[H])C1=O)[H])[H])[H])([H])[H]

>  <h>  (81) 
<NA>

>  <Training>  (81) 
True

>  <Success>  (81) 
True

>  <enamine_searched>  (81) 
False

>  <enamine_id>  (81) 
nan

$$$$

     RDKit          3D

 63 68  0  0  0  0  0  0  0  0999 V2000
   -7.9312   -3.4623  -24.1436 C   0  0  0  0  0  0  0  0  0  0  0  0
   -8.3054   -2.7828  -22.8270 C   0  0  1  0  0  0  0  0  0  0  0  0
   -7.0770   -2.5493  -21.9307 C   0  0  0  0  0  0  0  0  0  0  0  0
   -7.4194   -1.3618  -21.1812 N   0  0  0  0  0  0  0  0  0  0  0  0
   -6.6054   -0.8065  -20.1656 C   0  0  0  0  0  0  0  0  0  0  0  0
   -6.9228   -1.0340  -18.8529 C   0  0  0  0  0  0  0  0  0  0  0  0
   -6.2241   -0.5446  -17.8010 N   0  0  0  0  0  0  0  0  0  0  0  0
   -5.1832    0.2068  -18.0738 C   0  0  0  0  0  0  0  0  0  0  0  0
   -4.7465    0.5248  -19.3924 C   0  0  0  0  0  0  0  0  0  0  0  0
   -3.6212    1.3559  -19.6373 C   0  0  0  0  0  0  0  0  0  0  0  0
   -3.2376    1.6508  -20.9165 C   0  0  0  0  0  0  0  0  0  0  0  0
   -3.9581    1.1318  -22.0163 C   0  0  0  0  0  0  0  0  0  0  0  0
   -5.0531    0.3283  -21.8070 C   0  0  0  0  0  0  0  0  0  0  0  0
   -5.4738    0.0027  -20.4861 C   0  0  0  0  0  0  0  0  0  0  0  0
   -5.6136   -0.0341  -22.6628 H   0  0  0  0  0  0  0  0  0  0  0  0
   -3.6621    1.3850  -23.0299 H   0  0  0  0  0  0  0  0  0  0  0  0
   -2.3794    2.2927  -21.0928 H   0  0  0  0  0  0  0  0  0  0  0  0
   -3.0913    1.7655  -18.7822 H   0  0  0  0  0  0  0  0  0  0  0  0
   -4.6190    0.6039  -17.2292 H   0  0  0  0  0  0  0  0  0  0  0  0
   -7.7913   -1.6437  -18.6146 H   0  0  0  0  0  0  0  0  0  0  0  0
   -8.4833   -0.6521  -21.6835 C   0  0  0  0  0  0  0  0  0  0  0  0
   -8.8814    0.3964  -21.2116 O   0  0  0  0  0  0  0  0  0  0  0  0
   -9.0361   -1.4043  -22.9171 C   0  0  1  0  0  0  0  0  0  0  0  0
   -8.6638   -0.6621  -24.2232 C   0  0  0  0  0  0  0  0  0  0  0  0
   -9.4277    0.5571  -24.4073 N   0  0  0  0  0  0  0  0  0  0  0  0
   -8.7397    1.7228  -24.9210 C   0  0  0  0  0  0  0  0  0  0  0  0
   -7.7192    2.1908  -23.8816 C   0  0  0  0  0  0  0  0  0  0  0  0
   -6.5357    1.8987  -23.9408 O   0  0  0  0  0  0  0  0  0  0  0  0
   -8.2638    2.9174  -22.8709 N   0  0  0  0  0  0  0  0  0  0  0  0
   -7.4068    3.4884  -21.8545 C   0  0  0  0  0  0  0  0  0  0  0  0
   -6.7352    4.7659  -22.2913 C   0  0  0  0  0  0  0  0  0  0  0  0
   -5.8124    4.5629  -23.2841 F   0  0  0  0  0  0  0  0  0  0  0  0
   -7.4994    6.0510  -22.3412 C   0  0  0  0  0  0  0  0  0  0  0  0
   -6.4410    5.8130  -21.2826 C   0  0  0  0  0  0  0  0  0  0  0  0
   -5.4653    6.2975  -21.3271 H   0  0  0  0  0  0  0  0  0  0  0  0
   -6.8294    5.6071  -20.2940 H   0  0  0  0  0  0  0  0  0  0  0  0
   -7.2609    6.7384  -23.1480 H   0  0  0  0  0  0  0  0  0  0  0  0
   -8.5525    6.0002  -22.0525 H   0  0  0  0  0  0  0  0  0  0  0  0
   -8.0142    3.7234  -20.9807 H   0  0  0  0  0  0  0  0  0  0  0  0
   -6.6480    2.7489  -21.5765 H   0  0  0  0  0  0  0  0  0  0  0  0
   -9.2611    2.8675  -22.7117 H   0  0  0  0  0  0  0  0  0  0  0  0
   -9.4988    2.4835  -25.1301 H   0  0  0  0  0  0  0  0  0  0  0  0
   -8.2218    1.4751  -25.8534 H   0  0  0  0  0  0  0  0  0  0  0  0
  -10.7826    0.5899  -24.2688 C   0  0  0  0  0  0  0  0  0  0  0  0
  -11.4700    1.5024  -24.7036 O   0  0  0  0  0  0  0  0  0  0  0  0
  -11.3647   -0.5579  -23.5084 C   0  0  0  0  0  0  0  0  0  0  0  0
  -12.7523   -0.6321  -23.4307 C   0  0  0  0  0  0  0  0  0  0  0  0
  -13.3633   -1.5570  -22.6123 C   0  0  0  0  0  0  0  0  0  0  0  0
  -12.5400   -2.4023  -21.8784 C   0  0  0  0  0  0  0  0  0  0  0  0
  -13.1141   -3.2832  -21.0462 F   0  0  0  0  0  0  0  0  0  0  0  0
  -11.1645   -2.3791  -21.9678 C   0  0  0  0  0  0  0  0  0  0  0  0
  -10.5473   -1.4713  -22.8313 C   0  0  0  0  0  0  0  0  0  0  0  0
  -10.5933   -3.0605  -21.3471 H   0  0  0  0  0  0  0  0  0  0  0  0
  -14.4403   -1.6118  -22.4953 H   0  0  0  0  0  0  0  0  0  0  0  0
  -13.3229    0.0917  -23.9973 H   0  0  0  0  0  0  0  0  0  0  0  0
   -7.6034   -0.3995  -24.2106 H   0  0  0  0  0  0  0  0  0  0  0  0
   -8.8399   -1.3366  -25.0712 H   0  0  0  0  0  0  0  0  0  0  0  0
   -6.8945   -3.3900  -21.2538 H   0  0  0  0  0  0  0  0  0  0  0  0
   -6.1628   -2.4049  -22.5283 H   0  0  0  0  0  0  0  0  0  0  0  0
   -8.9772   -3.4583  -22.2941 H   0  0  0  0  0  0  0  0  0  0  0  0
   -7.1963   -2.8691  -24.7000 H   0  0  0  0  0  0  0  0  0  0  0  0
   -7.4843   -4.4429  -23.9527 H   0  0  0  0  0  0  0  0  0  0  0  0
   -8.8016   -3.6111  -24.7908 H   0  0  0  0  0  0  0  0  0  0  0  0
  1  2  1  0
  2  3  1  0
  3  4  1  0
  4  5  1  0
  5  6  2  0
  6  7  1  0
  7  8  2  0
  8  9  1  0
  9 10  2  0
 10 11  1  0
 11 12  2  0
 12 13  1  0
 13 14  2  0
 13 15  1  0
 12 16  1  0
 11 17  1  0
 10 18  1  0
  8 19  1  0
  6 20  1  0
  4 21  1  0
 21 22  2  0
 21 23  1  0
 23 24  1  6
 24 25  1  0
 25 26  1  0
 26 27  1  0
 27 28  2  0
 27 29  1  0
 29 30  1  0
 30 31  1  0
 31 32  1  0
 31 33  1  0
 33 34  1  0
 34 35  1  0
 34 36  1  0
 33 37  1  0
 33 38  1  0
 30 39  1  0
 30 40  1  0
 29 41  1  0
 26 42  1  0
 26 43  1  0
 25 44  1  0
 44 45  2  0
 44 46  1  0
 46 47  2  0
 47 48  1  0
 48 49  2  0
 49 50  1  0
 49 51  1  0
 51 52  2  0
 51 53  1  0
 48 54  1  0
 47 55  1  0
 24 56  1  0
 24 57  1  0
  3 58  1  0
  3 59  1  0
  2 60  1  1
  1 61  1  0
  1 62  1  0
  1 63  1  0
 23  2  1  0
 34 31  1  0
 52 46  1  0
 14  5  1  0
 52 23  1  0
 14  9  1  0
M  END
>  <cnnaffinities>  (82) 
[6.34004]

>  <score>  (82) 
6.34004

>  <index>  (82) 
84

>  <Smiles>  (82) 
C([C@]1(C(N(c2c(nc(c3c(c(c(c(c23)[H])[H])[H])[H])[H])[H])C(=O)[C@]21C(N(C(C(=O)N(C(C1(F)C(C1([H])[H])([H])[H])([H])[H])[H])([H])[H])C(=O)c1c(c(c(F)c(c21)[H])[H])[H])([H])[H])([H])[H])[H])([H])([H])[H]

>  <h>  (82) 
<NA>

>  <Training>  (82) 
True

>  <Success>  (82) 
True

>  <enamine_searched>  (82) 
False

>  <enamine_id>  (82) 
nan

$$$$

     RDKit          3D

 57 62  0  0  0  0  0  0  0  0999 V2000
   -6.5865    3.4561  -23.1008 C   0  0  0  0  0  0  0  0  0  0  0  0
   -6.9720    2.4679  -24.0970 N   0  0  0  0  0  0  0  0  0  0  0  0
   -8.2493    2.5169  -24.5809 C   0  0  0  0  0  0  0  0  0  0  0  0
   -8.9847    3.4689  -24.3847 O   0  0  0  0  0  0  0  0  0  0  0  0
   -8.6708    1.3177  -25.4383 C   0  0  0  0  0  0  0  0  0  0  0  0
   -9.3302    0.2718  -24.6794 N   0  0  0  0  0  0  0  0  0  0  0  0
   -8.7062   -1.0251  -24.4488 C   0  0  0  0  0  0  0  0  0  0  0  0
   -8.9353   -1.5251  -22.9994 C   0  0  2  0  0  0  0  0  0  0  0  0
   -8.1887   -0.6160  -22.0059 C   0  0  0  0  0  0  0  0  0  0  0  0
   -8.2849    0.5909  -21.9107 O   0  0  0  0  0  0  0  0  0  0  0  0
   -7.3736   -1.3913  -21.2124 N   0  0  0  0  0  0  0  0  0  0  0  0
   -6.5824   -0.8276  -20.1886 C   0  0  0  0  0  0  0  0  0  0  0  0
   -6.8937   -1.0701  -18.8759 C   0  0  0  0  0  0  0  0  0  0  0  0
   -6.2188   -0.5577  -17.8198 N   0  0  0  0  0  0  0  0  0  0  0  0
   -5.1886    0.2102  -18.0909 C   0  0  0  0  0  0  0  0  0  0  0  0
   -4.7473    0.5258  -19.4084 C   0  0  0  0  0  0  0  0  0  0  0  0
   -3.6147    1.3500  -19.6387 C   0  0  0  0  0  0  0  0  0  0  0  0
   -3.1978    1.6191  -20.9129 C   0  0  0  0  0  0  0  0  0  0  0  0
   -3.8835    1.0705  -22.0182 C   0  0  0  0  0  0  0  0  0  0  0  0
   -4.9818    0.2701  -21.8242 C   0  0  0  0  0  0  0  0  0  0  0  0
   -5.4544   -0.0102  -20.5067 C   0  0  0  0  0  0  0  0  0  0  0  0
   -5.4860   -0.1637  -22.6805 H   0  0  0  0  0  0  0  0  0  0  0  0
   -3.5404    1.2980  -23.0248 H   0  0  0  0  0  0  0  0  0  0  0  0
   -2.3341    2.2527  -21.0825 H   0  0  0  0  0  0  0  0  0  0  0  0
   -3.0978    1.7637  -18.7785 H   0  0  0  0  0  0  0  0  0  0  0  0
   -4.6361    0.6179  -17.2444 H   0  0  0  0  0  0  0  0  0  0  0  0
   -7.7540   -1.6932  -18.6358 H   0  0  0  0  0  0  0  0  0  0  0  0
   -7.4605   -2.8117  -21.4499 C   0  0  0  0  0  0  0  0  0  0  0  0
   -8.3174   -2.9074  -22.7062 C   0  0  0  0  0  0  0  0  0  0  0  0
   -7.8807   -3.8392  -23.8022 C   0  0  0  0  0  0  0  0  0  0  0  0
   -9.0924   -4.1625  -22.9706 C   0  0  0  0  0  0  0  0  0  0  0  0
  -10.0616   -4.0311  -23.4451 H   0  0  0  0  0  0  0  0  0  0  0  0
   -9.0458   -4.9702  -22.2391 H   0  0  0  0  0  0  0  0  0  0  0  0
   -8.0424   -3.5205  -24.8284 H   0  0  0  0  0  0  0  0  0  0  0  0
   -6.9762   -4.4282  -23.6557 H   0  0  0  0  0  0  0  0  0  0  0  0
   -6.4604   -3.2392  -21.5894 H   0  0  0  0  0  0  0  0  0  0  0  0
   -7.9273   -3.3319  -20.6032 H   0  0  0  0  0  0  0  0  0  0  0  0
  -10.4394   -1.4437  -22.7546 C   0  0  0  0  0  0  0  0  0  0  0  0
  -11.0594   -2.2400  -21.7935 C   0  0  0  0  0  0  0  0  0  0  0  0
  -12.4365   -2.2469  -21.6624 C   0  0  0  0  0  0  0  0  0  0  0  0
  -13.1690   -3.4098  -20.6067 Cl  0  0  0  0  0  0  0  0  0  0  0  0
  -13.2457   -1.4021  -22.4119 C   0  0  0  0  0  0  0  0  0  0  0  0
  -12.6274   -0.5554  -23.3098 C   0  0  0  0  0  0  0  0  0  0  0  0
  -11.2475   -0.5595  -23.4708 C   0  0  0  0  0  0  0  0  0  0  0  0
  -10.6657    0.4363  -24.4187 C   0  0  0  0  0  0  0  0  0  0  0  0
  -11.3385    1.3308  -24.9056 O   0  0  0  0  0  0  0  0  0  0  0  0
  -13.1914    0.1589  -23.8961 H   0  0  0  0  0  0  0  0  0  0  0  0
  -14.3237   -1.3775  -22.2658 H   0  0  0  0  0  0  0  0  0  0  0  0
  -10.4736   -2.9169  -21.1920 H   0  0  0  0  0  0  0  0  0  0  0  0
   -7.6354   -0.9766  -24.6587 H   0  0  0  0  0  0  0  0  0  0  0  0
   -9.1456   -1.7671  -25.1279 H   0  0  0  0  0  0  0  0  0  0  0  0
   -7.7985    0.8997  -25.9538 H   0  0  0  0  0  0  0  0  0  0  0  0
   -9.3973    1.6839  -26.1667 H   0  0  0  0  0  0  0  0  0  0  0  0
   -6.5010    1.5729  -24.0524 H   0  0  0  0  0  0  0  0  0  0  0  0
   -5.5748    3.2377  -22.7439 H   0  0  0  0  0  0  0  0  0  0  0  0
   -7.2803    3.4365  -22.2516 H   0  0  0  0  0  0  0  0  0  0  0  0
   -6.6084    4.4582  -23.5419 H   0  0  0  0  0  0  0  0  0  0  0  0
  1  2  1  0
  2  3  1  0
  3  4  2  0
  3  5  1  0
  5  6  1  0
  6  7  1  0
  8  7  1  6
  8  9  1  0
  9 10  2  0
  9 11  1  0
 11 12  1  0
 12 13  2  0
 13 14  1  0
 14 15  2  0
 15 16  1  0
 16 17  2  0
 17 18  1  0
 18 19  2  0
 19 20  1  0
 20 21  2  0
 20 22  1  0
 19 23  1  0
 18 24  1  0
 17 25  1  0
 15 26  1  0
 13 27  1  0
 11 28  1  0
 28 29  1  0
 29 30  1  0
 30 31  1  0
 31 32  1  0
 31 33  1  0
 30 34  1  0
 30 35  1  0
 28 36  1  0
 28 37  1  0
  8 38  1  0
 38 39  2  0
 39 40  1  0
 40 41  1  0
 40 42  2  0
 42 43  1  0
 43 44  2  0
 44 45  1  0
 45 46  2  0
 43 47  1  0
 42 48  1  0
 39 49  1  0
  7 50  1  0
  7 51  1  0
  5 52  1  0
  5 53  1  0
  2 54  1  0
  1 55  1  0
  1 56  1  0
  1 57  1  0
 45  6  1  0
 29  8  1  0
 44 38  1  0
 21 12  1  0
 31 29  1  0
 21 16  1  0
M  END
>  <cnnaffinities>  (83) 
[5.99256]

>  <score>  (83) 
5.99256

>  <index>  (83) 
85

>  <Smiles>  (83) 
C(N(C(=O)C(N1C([C@@]2(C(=O)N(c3c(nc(c4c(c(c(c(c34)[H])[H])[H])[H])[H])[H])C(C32C(C3([H])[H])([H])[H])([H])[H])c2c(c(Cl)c(c(c2C1=O)[H])[H])[H])([H])[H])([H])[H])[H])([H])([H])[H]

>  <h>  (83) 
<NA>

>  <Training>  (83) 
True

>  <Success>  (83) 
True

>  <enamine_searched>  (83) 
False

>  <enamine_id>  (83) 
nan

$$$$

     RDKit          3D

 43 45  0  0  0  0  0  0  0  0999 V2000
   -8.5473   -5.5635  -25.7831 C   0  0  0  0  0  0  0  0  0  0  0  0
   -9.0629   -5.4493  -24.3463 C   0  0  1  0  0  0  0  0  0  0  0  0
   -8.0225   -5.8734  -23.3131 C   0  0  0  0  0  0  0  0  0  0  0  0
   -6.9337   -4.8302  -23.0967 C   0  0  0  0  0  0  0  0  0  0  0  0
   -7.5149   -3.5421  -22.7115 N   0  0  0  0  0  0  0  0  0  0  0  0
   -6.7565   -2.7454  -21.8642 C   0  0  0  0  0  0  0  0  0  0  0  0
   -5.6213   -3.0546  -21.5508 O   0  0  0  0  0  0  0  0  0  0  0  0
   -7.4132   -1.4740  -21.2696 C   0  0  0  0  0  0  0  0  0  0  0  0
   -6.5797   -0.8308  -20.1837 C   0  0  0  0  0  0  0  0  0  0  0  0
   -6.8740   -1.0459  -18.8630 C   0  0  0  0  0  0  0  0  0  0  0  0
   -6.1915   -0.5411  -17.7992 N   0  0  0  0  0  0  0  0  0  0  0  0
   -5.1587    0.2214  -18.0669 C   0  0  0  0  0  0  0  0  0  0  0  0
   -4.7209    0.5277  -19.3819 C   0  0  0  0  0  0  0  0  0  0  0  0
   -3.5917    1.3527  -19.6229 C   0  0  0  0  0  0  0  0  0  0  0  0
   -3.1898    1.6312  -20.9013 C   0  0  0  0  0  0  0  0  0  0  0  0
   -3.9014    1.0887  -21.9939 C   0  0  0  0  0  0  0  0  0  0  0  0
   -4.9979    0.2874  -21.7864 C   0  0  0  0  0  0  0  0  0  0  0  0
   -5.4446   -0.0140  -20.4743 C   0  0  0  0  0  0  0  0  0  0  0  0
   -5.5276   -0.1301  -22.6358 H   0  0  0  0  0  0  0  0  0  0  0  0
   -3.5778    1.3134  -23.0056 H   0  0  0  0  0  0  0  0  0  0  0  0
   -2.3306    2.2720  -21.0849 H   0  0  0  0  0  0  0  0  0  0  0  0
   -3.0606    1.7734  -18.7721 H   0  0  0  0  0  0  0  0  0  0  0  0
   -4.6048    0.6271  -17.2173 H   0  0  0  0  0  0  0  0  0  0  0  0
   -7.7209   -1.6701  -18.5854 H   0  0  0  0  0  0  0  0  0  0  0  0
   -7.6214   -0.7473  -22.0677 H   0  0  0  0  0  0  0  0  0  0  0  0
   -8.3927   -1.7505  -20.8540 H   0  0  0  0  0  0  0  0  0  0  0  0
   -8.5398   -2.9967  -23.6132 C   0  0  1  0  0  0  0  0  0  0  0  0
   -7.9409   -2.2907  -24.8404 C   0  0  0  0  0  0  0  0  0  0  0  0
   -8.7280   -1.9761  -25.5351 H   0  0  0  0  0  0  0  0  0  0  0  0
   -7.2482   -2.9313  -25.3933 H   0  0  0  0  0  0  0  0  0  0  0  0
   -7.3902   -1.3890  -24.5496 H   0  0  0  0  0  0  0  0  0  0  0  0
   -9.5909   -4.0645  -23.9669 C   0  0  0  0  0  0  0  0  0  0  0  0
  -10.2124   -3.6825  -24.7838 H   0  0  0  0  0  0  0  0  0  0  0  0
  -10.2620   -4.1726  -23.1081 H   0  0  0  0  0  0  0  0  0  0  0  0
   -9.0794   -2.2366  -23.0435 H   0  0  0  0  0  0  0  0  0  0  0  0
   -6.2961   -4.7526  -23.9897 H   0  0  0  0  0  0  0  0  0  0  0  0
   -6.2717   -5.1442  -22.2919 H   0  0  0  0  0  0  0  0  0  0  0  0
   -7.5747   -6.8275  -23.6112 H   0  0  0  0  0  0  0  0  0  0  0  0
   -8.5090   -6.0411  -22.3511 H   0  0  0  0  0  0  0  0  0  0  0  0
   -9.9143   -6.1417  -24.2750 H   0  0  0  0  0  0  0  0  0  0  0  0
   -7.6004   -5.0395  -25.9390 H   0  0  0  0  0  0  0  0  0  0  0  0
   -8.3804   -6.6141  -26.0495 H   0  0  0  0  0  0  0  0  0  0  0  0
   -9.2683   -5.1524  -26.4970 H   0  0  0  0  0  0  0  0  0  0  0  0
  1  2  1  0
  2  3  1  0
  3  4  1  0
  4  5  1  0
  5  6  1  0
  6  7  2  0
  6  8  1  0
  8  9  1  0
  9 10  2  0
 10 11  1  0
 11 12  2  0
 12 13  1  0
 13 14  2  0
 14 15  1  0
 15 16  2  0
 16 17  1  0
 17 18  2  0
 17 19  1  0
 16 20  1  0
 15 21  1  0
 14 22  1  0
 12 23  1  0
 10 24  1  0
  8 25  1  0
  8 26  1  0
  5 27  1  0
 27 28  1  0
 28 29  1  0
 28 30  1  0
 28 31  1  0
 27 32  1  0
 32 33  1  0
 32 34  1  0
 27 35  1  1
  4 36  1  0
  4 37  1  0
  3 38  1  0
  3 39  1  0
  2 40  1  6
  1 41  1  0
  1 42  1  0
  1 43  1  0
 32  2  1  0
 18  9  1  0
 18 13  1  0
M  END
>  <cnnaffinities>  (84) 
[4.89739, 4.62825]

>  <score>  (84) 
4.89739

>  <index>  (84) 
86

>  <Smiles>  (84) 
C([C@]1(C(C(N(C(=O)C(c2c(nc(c3c(c(c(c(c23)[H])[H])[H])[H])[H])[H])([H])[H])[C@@](C([H])([H])[H])(C1([H])[H])[H])([H])[H])([H])[H])[H])([H])([H])[H]

>  <h>  (84) 
<NA>

>  <Training>  (84) 
True

>  <Success>  (84) 
True

>  <enamine_searched>  (84) 
False

>  <enamine_id>  (84) 
nan

$$$$

     RDKit          3D

 59 64  0  0  0  0  0  0  0  0999 V2000
   -7.8689   -3.6826  -24.0566 C   0  0  0  0  0  0  0  0  0  0  0  0
   -8.2718   -2.8858  -22.8072 C   0  0  1  0  0  0  0  0  0  0  0  0
   -7.0704   -2.6400  -21.8664 C   0  0  0  0  0  0  0  0  0  0  0  0
   -7.4008   -1.3979  -21.1993 N   0  0  0  0  0  0  0  0  0  0  0  0
   -6.6033   -0.8147  -20.1738 C   0  0  0  0  0  0  0  0  0  0  0  0
   -6.9057   -1.0445  -18.8593 C   0  0  0  0  0  0  0  0  0  0  0  0
   -6.2021   -0.5477  -17.8087 N   0  0  0  0  0  0  0  0  0  0  0  0
   -5.1671    0.2075  -18.0804 C   0  0  0  0  0  0  0  0  0  0  0  0
   -4.7308    0.5257  -19.3978 C   0  0  0  0  0  0  0  0  0  0  0  0
   -3.6021    1.3551  -19.6414 C   0  0  0  0  0  0  0  0  0  0  0  0
   -3.2106    1.6420  -20.9176 C   0  0  0  0  0  0  0  0  0  0  0  0
   -3.9259    1.1063  -22.0133 C   0  0  0  0  0  0  0  0  0  0  0  0
   -5.0212    0.3039  -21.8047 C   0  0  0  0  0  0  0  0  0  0  0  0
   -5.4637   -0.0038  -20.4873 C   0  0  0  0  0  0  0  0  0  0  0  0
   -5.5677   -0.0887  -22.6582 H   0  0  0  0  0  0  0  0  0  0  0  0
   -3.6142    1.3440  -23.0252 H   0  0  0  0  0  0  0  0  0  0  0  0
   -2.3596    2.2938  -21.0990 H   0  0  0  0  0  0  0  0  0  0  0  0
   -3.0770    1.7724  -18.7849 H   0  0  0  0  0  0  0  0  0  0  0  0
   -4.6190    0.6150  -17.2291 H   0  0  0  0  0  0  0  0  0  0  0  0
   -7.7561   -1.6701  -18.5964 H   0  0  0  0  0  0  0  0  0  0  0  0
   -8.4255   -0.6913  -21.7888 C   0  0  0  0  0  0  0  0  0  0  0  0
   -8.8521    0.3582  -21.3672 O   0  0  0  0  0  0  0  0  0  0  0  0
   -8.9250   -1.4801  -23.0326 C   0  0  1  0  0  0  0  0  0  0  0  0
   -8.4107   -0.8356  -24.3465 C   0  0  0  0  0  0  0  0  0  0  0  0
   -9.0533    0.4322  -24.6370 N   0  0  0  0  0  0  0  0  0  0  0  0
   -8.2981    1.5184  -25.2431 C   0  0  0  0  0  0  0  0  0  0  0  0
   -8.1805    2.7182  -24.3479 C   0  0  0  0  0  0  0  0  0  0  0  0
   -7.5779    2.8206  -23.1119 C   0  0  0  0  0  0  0  0  0  0  0  0
   -7.7720    4.1595  -22.7211 C   0  0  0  0  0  0  0  0  0  0  0  0
   -8.4170    4.8425  -23.6610 N   0  0  0  0  0  0  0  0  0  0  0  0
   -8.6463    3.9578  -24.6419 N   0  0  0  0  0  0  0  0  0  0  0  0
   -9.2925    4.3945  -25.8678 C   0  0  0  0  0  0  0  0  0  0  0  0
  -10.1874    3.7892  -26.0383 H   0  0  0  0  0  0  0  0  0  0  0  0
   -8.6044    4.2968  -26.7180 H   0  0  0  0  0  0  0  0  0  0  0  0
   -9.5441    5.4482  -25.7239 H   0  0  0  0  0  0  0  0  0  0  0  0
   -7.4845    4.6586  -21.7999 H   0  0  0  0  0  0  0  0  0  0  0  0
   -7.0982    2.0134  -22.5774 H   0  0  0  0  0  0  0  0  0  0  0  0
   -8.7400    1.7777  -26.2126 H   0  0  0  0  0  0  0  0  0  0  0  0
   -7.2944    1.1281  -25.4245 H   0  0  0  0  0  0  0  0  0  0  0  0
  -10.4082    0.5668  -24.5822 C   0  0  0  0  0  0  0  0  0  0  0  0
  -10.9856    1.5089  -25.1122 O   0  0  0  0  0  0  0  0  0  0  0  0
  -11.1391   -0.4943  -23.8088 C   0  0  0  0  0  0  0  0  0  0  0  0
  -12.5342   -0.4627  -23.8042 C   0  0  0  0  0  0  0  0  0  0  0  0
  -13.2547   -1.3313  -23.0091 C   0  0  0  0  0  0  0  0  0  0  0  0
  -12.5534   -2.2041  -22.1866 C   0  0  0  0  0  0  0  0  0  0  0  0
  -13.2469   -3.0085  -21.3649 F   0  0  0  0  0  0  0  0  0  0  0  0
  -11.1764   -2.2670  -22.1784 C   0  0  0  0  0  0  0  0  0  0  0  0
  -10.4435   -1.4475  -23.0467 C   0  0  0  0  0  0  0  0  0  0  0  0
  -10.7067   -2.9392  -21.4682 H   0  0  0  0  0  0  0  0  0  0  0  0
  -14.3368   -1.3253  -22.9737 H   0  0  0  0  0  0  0  0  0  0  0  0
  -13.0264    0.2821  -24.4191 H   0  0  0  0  0  0  0  0  0  0  0  0
   -8.5773   -1.5451  -25.1731 H   0  0  0  0  0  0  0  0  0  0  0  0
   -7.3335   -0.6607  -24.2421 H   0  0  0  0  0  0  0  0  0  0  0  0
   -6.1286   -2.5566  -22.4339 H   0  0  0  0  0  0  0  0  0  0  0  0
   -6.9347   -3.4433  -21.1310 H   0  0  0  0  0  0  0  0  0  0  0  0
   -9.0082   -3.4752  -22.2546 H   0  0  0  0  0  0  0  0  0  0  0  0
   -8.7109   -3.8235  -24.7451 H   0  0  0  0  0  0  0  0  0  0  0  0
   -7.0671   -3.1763  -24.6112 H   0  0  0  0  0  0  0  0  0  0  0  0
   -7.4933   -4.6769  -23.7822 H   0  0  0  0  0  0  0  0  0  0  0  0
  1  2  1  0
  2  3  1  0
  3  4  1  0
  4  5  1  0
  5  6  2  0
  6  7  1  0
  7  8  2  0
  8  9  1  0
  9 10  2  0
 10 11  1  0
 11 12  2  0
 12 13  1  0
 13 14  2  0
 13 15  1  0
 12 16  1  0
 11 17  1  0
 10 18  1  0
  8 19  1  0
  6 20  1  0
  4 21  1  0
 21 22  2  0
 21 23  1  0
 23 24  1  6
 24 25  1  0
 25 26  1  0
 26 27  1  0
 27 28  2  0
 28 29  1  0
 29 30  2  0
 30 31  1  0
 31 32  1  0
 32 33  1  0
 32 34  1  0
 32 35  1  0
 29 36  1  0
 28 37  1  0
 26 38  1  0
 26 39  1  0
 25 40  1  0
 40 41  2  0
 40 42  1  0
 42 43  2  0
 43 44  1  0
 44 45  2  0
 45 46  1  0
 45 47  1  0
 47 48  2  0
 47 49  1  0
 44 50  1  0
 43 51  1  0
 24 52  1  0
 24 53  1  0
  3 54  1  0
  3 55  1  0
  2 56  1  1
  1 57  1  0
  1 58  1  0
  1 59  1  0
 23  2  1  0
 31 27  1  0
 48 42  1  0
 14  5  1  0
 48 23  1  0
 14  9  1  0
M  END
>  <cnnaffinities>  (85) 
[6.51292, 6.34461]

>  <score>  (85) 
6.51292

>  <index>  (85) 
87

>  <Smiles>  (85) 
C([C@]1(C(N(c2c(nc(c3c(c(c(c(c23)[H])[H])[H])[H])[H])[H])C(=O)[C@]21C(N(C(c1c(c(nn1C([H])([H])[H])[H])[H])([H])[H])C(=O)c1c(c(c(F)c(c21)[H])[H])[H])([H])[H])([H])[H])[H])([H])([H])[H]

>  <h>  (85) 
<NA>

>  <Training>  (85) 
True

>  <Success>  (85) 
True

>  <enamine_searched>  (85) 
False

>  <enamine_id>  (85) 
nan

$$$$

     RDKit          3D

 40 42  0  0  0  0  0  0  0  0999 V2000
   -8.4919    0.7291  -21.5126 O   0  0  0  0  0  0  0  0  0  0  0  0
   -8.5457   -0.4630  -21.7626 C   0  0  0  0  0  0  0  0  0  0  0  0
   -7.4682   -1.4258  -21.2632 C   0  0  0  0  0  0  0  0  0  0  0  0
   -6.6083   -0.8324  -20.1839 C   0  0  0  0  0  0  0  0  0  0  0  0
   -6.9163   -1.0467  -18.8643 C   0  0  0  0  0  0  0  0  0  0  0  0
   -6.2349   -0.5428  -17.8017 N   0  0  0  0  0  0  0  0  0  0  0  0
   -5.1929    0.2093  -18.0728 C   0  0  0  0  0  0  0  0  0  0  0  0
   -4.7519    0.5124  -19.3895 C   0  0  0  0  0  0  0  0  0  0  0  0
   -3.6241    1.3361  -19.6218 C   0  0  0  0  0  0  0  0  0  0  0  0
   -3.2311    1.6316  -20.9002 C   0  0  0  0  0  0  0  0  0  0  0  0
   -3.9546    1.1156  -22.0009 C   0  0  0  0  0  0  0  0  0  0  0  0
   -5.0578    0.3223  -21.7987 C   0  0  0  0  0  0  0  0  0  0  0  0
   -5.4823   -0.0076  -20.4824 C   0  0  0  0  0  0  0  0  0  0  0  0
   -5.6273   -0.0384  -22.6508 H   0  0  0  0  0  0  0  0  0  0  0  0
   -3.6369    1.3634  -23.0112 H   0  0  0  0  0  0  0  0  0  0  0  0
   -2.3760    2.2782  -21.0723 H   0  0  0  0  0  0  0  0  0  0  0  0
   -3.1005    1.7424  -18.7591 H   0  0  0  0  0  0  0  0  0  0  0  0
   -4.6341    0.6251  -17.2328 H   0  0  0  0  0  0  0  0  0  0  0  0
   -7.7628   -1.6830  -18.5972 H   0  0  0  0  0  0  0  0  0  0  0  0
   -6.8739   -1.7657  -22.1238 H   0  0  0  0  0  0  0  0  0  0  0  0
   -7.9887   -2.3050  -20.8679 H   0  0  0  0  0  0  0  0  0  0  0  0
   -9.5727   -1.0157  -22.4849 N   0  0  0  0  0  0  0  0  0  0  0  0
  -10.6465   -0.1192  -22.8852 C   0  0  0  0  0  0  0  0  0  0  0  0
  -11.9990   -0.8043  -22.8548 C   0  0  0  0  0  0  0  0  0  0  0  0
  -12.0430   -1.9916  -23.8365 C   0  0  0  0  0  0  0  0  0  0  0  0
  -13.0725   -3.0053  -23.3648 C   0  0  0  0  0  0  0  0  0  0  0  0
  -12.6805   -3.6223  -22.2097 F   0  0  0  0  0  0  0  0  0  0  0  0
  -14.2482   -2.3592  -23.0982 F   0  0  0  0  0  0  0  0  0  0  0  0
  -13.2831   -3.7976  -24.0893 H   0  0  0  0  0  0  0  0  0  0  0  0
  -10.6269   -2.5764  -24.0558 C   0  0  0  0  0  0  0  0  0  0  0  0
   -9.7379   -2.4349  -22.8111 C   0  0  0  0  0  0  0  0  0  0  0  0
   -8.7554   -2.8808  -23.0033 H   0  0  0  0  0  0  0  0  0  0  0  0
  -10.1793   -2.9817  -21.9669 H   0  0  0  0  0  0  0  0  0  0  0  0
  -10.6638   -3.6292  -24.3743 H   0  0  0  0  0  0  0  0  0  0  0  0
  -10.1442   -2.0054  -24.8641 H   0  0  0  0  0  0  0  0  0  0  0  0
  -12.4241   -1.6403  -24.8075 H   0  0  0  0  0  0  0  0  0  0  0  0
  -12.2284   -1.1392  -21.8363 H   0  0  0  0  0  0  0  0  0  0  0  0
  -12.7450   -0.0722  -23.1796 H   0  0  0  0  0  0  0  0  0  0  0  0
  -10.6136    0.7266  -22.2008 H   0  0  0  0  0  0  0  0  0  0  0  0
  -10.4524    0.2456  -23.9031 H   0  0  0  0  0  0  0  0  0  0  0  0
  1  2  2  0
  2  3  1  0
  3  4  1  0
  4  5  2  0
  5  6  1  0
  6  7  2  0
  7  8  1  0
  8  9  2  0
  9 10  1  0
 10 11  2  0
 11 12  1  0
 12 13  2  0
 12 14  1  0
 11 15  1  0
 10 16  1  0
  9 17  1  0
  7 18  1  0
  5 19  1  0
  3 20  1  0
  3 21  1  0
  2 22  1  0
 22 23  1  0
 23 24  1  0
 24 25  1  0
 25 26  1  0
 26 27  1  0
 26 28  1  0
 26 29  1  0
 25 30  1  0
 30 31  1  0
 31 32  1  0
 31 33  1  0
 30 34  1  0
 30 35  1  0
 25 36  1  0
 24 37  1  0
 24 38  1  0
 23 39  1  0
 23 40  1  0
 13  4  1  0
 31 22  1  0
 13  8  1  0
M  END
>  <cnnaffinities>  (86) 
[5.49673, 5.51183, 4.66239, 5.38816, 5.51211, 4.67049, 4.67106, 4.40092, 4.39939, 4.39937, 4.55226, 4.55218, 5.50562, 4.57273, 4.51342, 4.51352, 4.54074, 4.50732, 4.50737, 4.53279, 4.25969, 4.25946, 4.46888, 4.3955, 4.47429, 4.19738, 4.19744, 4.30169, 4.3017]

>  <score>  (86) 
5.49673

>  <index>  (86) 
88

>  <Smiles>  (86) 
O=C(C(c1c(nc(c2c(c(c(c(c12)[H])[H])[H])[H])[H])[H])([H])[H])N1C(C(C(C(F)(F)[H])(C(C1([H])[H])([H])[H])[H])([H])[H])([H])[H]

>  <h>  (86) 
<NA>

>  <Training>  (86) 
True

>  <Success>  (86) 
True

>  <enamine_searched>  (86) 
False

>  <enamine_id>  (86) 
nan

$$$$

     RDKit          3D

 43 45  0  0  0  0  0  0  0  0999 V2000
   -6.6982    0.2996  -26.9330 C   0  0  0  0  0  0  0  0  0  0  0  0
   -8.0228    0.5102  -26.1872 C   0  0  0  0  0  0  0  0  0  0  0  0
   -9.0564    1.0566  -27.1805 C   0  0  0  0  0  0  0  0  0  0  0  0
  -10.0090    1.2819  -26.6880 H   0  0  0  0  0  0  0  0  0  0  0  0
   -8.7028    1.9827  -27.6488 H   0  0  0  0  0  0  0  0  0  0  0  0
   -9.2556    0.3385  -27.9845 H   0  0  0  0  0  0  0  0  0  0  0  0
   -7.8072    1.5158  -25.0348 C   0  0  0  0  0  0  0  0  0  0  0  0
   -8.6334    1.1986  -23.7903 C   0  0  0  0  0  0  0  0  0  0  0  0
   -8.2719   -0.1196  -23.2694 N   0  0  0  0  0  0  0  0  0  0  0  0
   -8.3347   -0.3283  -21.9065 C   0  0  0  0  0  0  0  0  0  0  0  0
   -9.0510    0.3422  -21.1853 O   0  0  0  0  0  0  0  0  0  0  0  0
   -7.4284   -1.4113  -21.2833 C   0  0  0  0  0  0  0  0  0  0  0  0
   -6.5710   -0.8309  -20.1765 C   0  0  0  0  0  0  0  0  0  0  0  0
   -6.8779   -1.0392  -18.8571 C   0  0  0  0  0  0  0  0  0  0  0  0
   -6.1935   -0.5335  -17.7934 N   0  0  0  0  0  0  0  0  0  0  0  0
   -5.1566    0.2217  -18.0637 C   0  0  0  0  0  0  0  0  0  0  0  0
   -4.7191    0.5317  -19.3793 C   0  0  0  0  0  0  0  0  0  0  0  0
   -3.5964    1.3639  -19.6223 C   0  0  0  0  0  0  0  0  0  0  0  0
   -3.2083    1.6584  -20.9006 C   0  0  0  0  0  0  0  0  0  0  0  0
   -3.9283    1.1266  -21.9942 C   0  0  0  0  0  0  0  0  0  0  0  0
   -5.0161    0.3154  -21.7869 C   0  0  0  0  0  0  0  0  0  0  0  0
   -5.4445   -0.0049  -20.4708 C   0  0  0  0  0  0  0  0  0  0  0  0
   -5.5572   -0.0801  -22.6424 H   0  0  0  0  0  0  0  0  0  0  0  0
   -3.6146    1.3668  -23.0051 H   0  0  0  0  0  0  0  0  0  0  0  0
   -2.3548    2.3061  -21.0851 H   0  0  0  0  0  0  0  0  0  0  0  0
   -3.0613    1.7800  -18.7719 H   0  0  0  0  0  0  0  0  0  0  0  0
   -4.6012    0.6281  -17.2155 H   0  0  0  0  0  0  0  0  0  0  0  0
   -7.7303   -1.6604  -18.5851 H   0  0  0  0  0  0  0  0  0  0  0  0
   -8.0912   -2.1678  -20.8457 H   0  0  0  0  0  0  0  0  0  0  0  0
   -6.8066   -1.9200  -22.0297 H   0  0  0  0  0  0  0  0  0  0  0  0
   -7.9667   -1.1682  -24.2368 C   0  0  0  0  0  0  0  0  0  0  0  0
   -8.5343   -0.8267  -25.6163 C   0  0  0  0  0  0  0  0  0  0  0  0
   -9.6292   -0.8195  -25.5579 H   0  0  0  0  0  0  0  0  0  0  0  0
   -8.2887   -1.6331  -26.3128 H   0  0  0  0  0  0  0  0  0  0  0  0
   -6.8835   -1.3436  -24.3078 H   0  0  0  0  0  0  0  0  0  0  0  0
   -8.4145   -2.1045  -23.8928 H   0  0  0  0  0  0  0  0  0  0  0  0
   -9.7068    1.2611  -24.0103 H   0  0  0  0  0  0  0  0  0  0  0  0
   -8.4388    1.9327  -23.0089 H   0  0  0  0  0  0  0  0  0  0  0  0
   -6.7507    1.5345  -24.7419 H   0  0  0  0  0  0  0  0  0  0  0  0
   -8.0314    2.5286  -25.3846 H   0  0  0  0  0  0  0  0  0  0  0  0
   -5.9332   -0.1391  -26.2828 H   0  0  0  0  0  0  0  0  0  0  0  0
   -6.8287   -0.3719  -27.7897 H   0  0  0  0  0  0  0  0  0  0  0  0
   -6.3046    1.2484  -27.3164 H   0  0  0  0  0  0  0  0  0  0  0  0
  1  2  1  0
  2  3  1  0
  3  4  1  0
  3  5  1  0
  3  6  1  0
  2  7  1  0
  7  8  1  0
  8  9  1  0
  9 10  1  0
 10 11  2  0
 10 12  1  0
 12 13  1  0
 13 14  2  0
 14 15  1  0
 15 16  2  0
 16 17  1  0
 17 18  2  0
 18 19  1  0
 19 20  2  0
 20 21  1  0
 21 22  2  0
 21 23  1  0
 20 24  1  0
 19 25  1  0
 18 26  1  0
 16 27  1  0
 14 28  1  0
 12 29  1  0
 12 30  1  0
  9 31  1  0
 31 32  1  0
 32 33  1  0
 32 34  1  0
 31 35  1  0
 31 36  1  0
  8 37  1  0
  8 38  1  0
  7 39  1  0
  7 40  1  0
  1 41  1  0
  1 42  1  0
  1 43  1  0
 32  2  1  0
 22 13  1  0
 22 17  1  0
M  END
>  <cnnaffinities>  (87) 
[4.30451, 4.30449, 4.30448, 4.80837, 4.8084, 4.80846, 4.80836, 4.4858, 4.99351]

>  <score>  (87) 
4.30451

>  <index>  (87) 
89

>  <Smiles>  (87) 
C(C1(C([H])([H])[H])C(C(N(C(=O)C(c2c(nc(c3c(c(c(c(c23)[H])[H])[H])[H])[H])[H])([H])[H])C(C1([H])[H])([H])[H])([H])[H])([H])[H])([H])([H])[H]

>  <h>  (87) 
<NA>

>  <Training>  (87) 
True

>  <Success>  (87) 
True

>  <enamine_searched>  (87) 
False

>  <enamine_id>  (87) 
nan

$$$$

     RDKit          3D

 64 68  0  0  0  0  0  0  0  0999 V2000
   -7.4721    3.3262  -21.8351 C   0  0  0  0  0  0  0  0  0  0  0  0
   -8.5052    2.8328  -22.7322 N   0  0  0  0  0  0  0  0  0  0  0  0
   -8.0907    2.0975  -23.8022 C   0  0  0  0  0  0  0  0  0  0  0  0
   -6.9051    1.8954  -24.0259 O   0  0  0  0  0  0  0  0  0  0  0  0
   -9.1488    1.5063  -24.7310 C   0  0  0  0  0  0  0  0  0  0  0  0
   -9.7183    0.3087  -24.1486 N   0  0  0  0  0  0  0  0  0  0  0  0
   -8.9035   -0.8949  -24.0611 C   0  0  0  0  0  0  0  0  0  0  0  0
   -9.1682   -1.6645  -22.7446 C   0  0  2  0  0  0  0  0  0  0  0  0
   -8.6135   -0.8583  -21.5493 C   0  0  0  0  0  0  0  0  0  0  0  0
   -9.1181    0.1112  -21.0173 O   0  0  0  0  0  0  0  0  0  0  0  0
   -7.4042   -1.4074  -21.1860 N   0  0  0  0  0  0  0  0  0  0  0  0
   -6.6110   -0.8250  -20.1715 C   0  0  0  0  0  0  0  0  0  0  0  0
   -6.9319   -1.0420  -18.8553 C   0  0  0  0  0  0  0  0  0  0  0  0
   -6.2338   -0.5493  -17.8054 N   0  0  0  0  0  0  0  0  0  0  0  0
   -5.1887    0.1963  -18.0785 C   0  0  0  0  0  0  0  0  0  0  0  0
   -4.7503    0.5089  -19.3971 C   0  0  0  0  0  0  0  0  0  0  0  0
   -3.6267    1.3444  -19.6347 C   0  0  0  0  0  0  0  0  0  0  0  0
   -3.2441    1.6476  -20.9127 C   0  0  0  0  0  0  0  0  0  0  0  0
   -3.9672    1.1348  -22.0111 C   0  0  0  0  0  0  0  0  0  0  0  0
   -5.0642    0.3292  -21.8101 C   0  0  0  0  0  0  0  0  0  0  0  0
   -5.4791   -0.0124  -20.4919 C   0  0  0  0  0  0  0  0  0  0  0  0
   -5.6335   -0.0137  -22.6685 H   0  0  0  0  0  0  0  0  0  0  0  0
   -3.6598    1.3866  -23.0217 H   0  0  0  0  0  0  0  0  0  0  0  0
   -2.3899    2.2948  -21.0879 H   0  0  0  0  0  0  0  0  0  0  0  0
   -3.0976    1.7508  -18.7775 H   0  0  0  0  0  0  0  0  0  0  0  0
   -4.6260    0.5964  -17.2341 H   0  0  0  0  0  0  0  0  0  0  0  0
   -7.7973   -1.6538  -18.6136 H   0  0  0  0  0  0  0  0  0  0  0  0
   -7.0106   -2.5663  -21.9554 C   0  0  0  0  0  0  0  0  0  0  0  0
   -8.3215   -2.9677  -22.6534 C   0  0  2  0  0  0  0  0  0  0  0  0
   -8.1114   -3.7380  -23.9573 C   0  0  0  0  0  0  0  0  0  0  0  0
   -7.4179   -5.3498  -23.6343 S   0  0  0  0  0  0  0  0  0  0  0  0
   -6.0330   -5.2100  -23.2148 O   0  0  0  0  0  0  0  0  0  0  0  0
   -8.3479   -6.0757  -22.7758 O   0  0  0  0  0  0  0  0  0  0  0  0
   -7.3461   -5.9883  -25.1749 N   0  0  0  0  0  0  0  0  0  0  0  0
   -8.5580   -6.4545  -25.8435 C   0  0  0  0  0  0  0  0  0  0  0  0
   -9.1519   -5.6061  -26.1991 H   0  0  0  0  0  0  0  0  0  0  0  0
   -8.2480   -7.0108  -26.7313 H   0  0  0  0  0  0  0  0  0  0  0  0
   -9.1797   -7.1009  -25.2147 H   0  0  0  0  0  0  0  0  0  0  0  0
   -6.5810   -6.6527  -25.1844 H   0  0  0  0  0  0  0  0  0  0  0  0
   -7.4231   -3.2359  -24.6423 H   0  0  0  0  0  0  0  0  0  0  0  0
   -9.0603   -3.8935  -24.4790 H   0  0  0  0  0  0  0  0  0  0  0  0
   -8.8439   -3.6528  -21.9841 H   0  0  0  0  0  0  0  0  0  0  0  0
   -6.6367   -3.3607  -21.3058 H   0  0  0  0  0  0  0  0  0  0  0  0
   -6.2145   -2.3311  -22.6787 H   0  0  0  0  0  0  0  0  0  0  0  0
  -10.6683   -1.8425  -22.6182 C   0  0  0  0  0  0  0  0  0  0  0  0
  -11.2168   -2.8291  -21.7963 C   0  0  0  0  0  0  0  0  0  0  0  0
  -12.5830   -2.8714  -21.6054 C   0  0  0  0  0  0  0  0  0  0  0  0
  -13.0838   -3.7670  -20.7438 F   0  0  0  0  0  0  0  0  0  0  0  0
  -13.4743   -2.0263  -22.2514 C   0  0  0  0  0  0  0  0  0  0  0  0
  -12.9367   -1.0648  -23.0755 C   0  0  0  0  0  0  0  0  0  0  0  0
  -11.5576   -0.9348  -23.2105 C   0  0  0  0  0  0  0  0  0  0  0  0
  -11.0666    0.2682  -23.9470 C   0  0  0  0  0  0  0  0  0  0  0  0
  -11.8216    1.1563  -24.3203 O   0  0  0  0  0  0  0  0  0  0  0  0
  -13.5578   -0.3536  -23.6032 H   0  0  0  0  0  0  0  0  0  0  0  0
  -14.5403   -2.1151  -22.0732 H   0  0  0  0  0  0  0  0  0  0  0  0
  -10.6060   -3.5590  -21.2791 H   0  0  0  0  0  0  0  0  0  0  0  0
   -7.8516   -0.6035  -24.1307 H   0  0  0  0  0  0  0  0  0  0  0  0
   -9.1307   -1.5564  -24.9084 H   0  0  0  0  0  0  0  0  0  0  0  0
   -9.9820    2.1862  -24.9310 H   0  0  0  0  0  0  0  0  0  0  0  0
   -8.6591    1.2585  -25.6808 H   0  0  0  0  0  0  0  0  0  0  0  0
   -9.4277    2.6818  -22.3453 H   0  0  0  0  0  0  0  0  0  0  0  0
   -6.8112    4.0088  -22.3734 H   0  0  0  0  0  0  0  0  0  0  0  0
   -6.8845    2.4770  -21.4564 H   0  0  0  0  0  0  0  0  0  0  0  0
   -7.9191    3.9019  -21.0245 H   0  0  0  0  0  0  0  0  0  0  0  0
  1  2  1  0
  2  3  1  0
  3  4  2  0
  3  5  1  0
  5  6  1  0
  6  7  1  0
  8  7  1  6
  8  9  1  0
  9 10  2  0
  9 11  1  0
 11 12  1  0
 12 13  2  0
 13 14  1  0
 14 15  2  0
 15 16  1  0
 16 17  2  0
 17 18  1  0
 18 19  2  0
 19 20  1  0
 20 21  2  0
 20 22  1  0
 19 23  1  0
 18 24  1  0
 17 25  1  0
 15 26  1  0
 13 27  1  0
 11 28  1  0
 28 29  1  0
 29 30  1  0
 30 31  1  0
 31 32  2  0
 31 33  2  0
 31 34  1  0
 34 35  1  0
 35 36  1  0
 35 37  1  0
 35 38  1  0
 34 39  1  0
 30 40  1  0
 30 41  1  0
 29 42  1  1
 28 43  1  0
 28 44  1  0
  8 45  1  0
 45 46  2  0
 46 47  1  0
 47 48  1  0
 47 49  2  0
 49 50  1  0
 50 51  2  0
 51 52  1  0
 52 53  2  0
 50 54  1  0
 49 55  1  0
 46 56  1  0
  7 57  1  0
  7 58  1  0
  5 59  1  0
  5 60  1  0
  2 61  1  0
  1 62  1  0
  1 63  1  0
  1 64  1  0
 52  6  1  0
 29  8  1  0
 51 45  1  0
 21 12  1  0
 21 16  1  0
M  END
>  <cnnaffinities>  (88) 
[6.51834]

>  <score>  (88) 
6.51834

>  <index>  (88) 
90

>  <Smiles>  (88) 
C(N(C(=O)C(N1C([C@@]2(C(=O)N(c3c(nc(c4c(c(c(c(c34)[H])[H])[H])[H])[H])[H])C([C@@]2(C(S(=O)(=O)N(C([H])([H])[H])[H])([H])[H])[H])([H])[H])c2c(c(F)c(c(c2C1=O)[H])[H])[H])([H])[H])([H])[H])[H])([H])([H])[H]

>  <h>  (88) 
<NA>

>  <Training>  (88) 
True

>  <Success>  (88) 
True

>  <enamine_searched>  (88) 
False

>  <enamine_id>  (88) 
nan

$$$$

     RDKit          3D

 66 71  0  0  0  0  0  0  0  0999 V2000
   -7.4233    3.3120  -21.9287 C   0  0  0  0  0  0  0  0  0  0  0  0
   -8.5084    2.8188  -22.7664 N   0  0  0  0  0  0  0  0  0  0  0  0
   -8.1758    2.0459  -23.8394 C   0  0  0  0  0  0  0  0  0  0  0  0
   -7.0125    1.7647  -24.0930 O   0  0  0  0  0  0  0  0  0  0  0  0
   -9.3325    1.5354  -24.7064 C   0  0  0  0  0  0  0  0  0  0  0  0
   -9.8772    0.3145  -24.1452 N   0  0  0  0  0  0  0  0  0  0  0  0
   -9.0368   -0.8754  -24.0678 C   0  0  0  0  0  0  0  0  0  0  0  0
   -9.2776   -1.6639  -22.7479 C   0  0  2  0  0  0  0  0  0  0  0  0
   -8.6835   -0.8482  -21.5667 C   0  0  0  0  0  0  0  0  0  0  0  0
   -9.1645    0.1362  -21.0462 O   0  0  0  0  0  0  0  0  0  0  0  0
   -7.4665   -1.3982  -21.2131 N   0  0  0  0  0  0  0  0  0  0  0  0
   -6.6613   -0.8195  -20.1962 C   0  0  0  0  0  0  0  0  0  0  0  0
   -6.9703   -1.0452  -18.8773 C   0  0  0  0  0  0  0  0  0  0  0  0
   -6.2604   -0.5673  -17.8262 N   0  0  0  0  0  0  0  0  0  0  0  0
   -5.2110    0.1712  -18.0969 C   0  0  0  0  0  0  0  0  0  0  0  0
   -4.7724    0.4874  -19.4127 C   0  0  0  0  0  0  0  0  0  0  0  0
   -3.6454    1.3203  -19.6436 C   0  0  0  0  0  0  0  0  0  0  0  0
   -3.2574    1.6291  -20.9180 C   0  0  0  0  0  0  0  0  0  0  0  0
   -3.9875    1.1269  -22.0184 C   0  0  0  0  0  0  0  0  0  0  0  0
   -5.0949    0.3327  -21.8232 C   0  0  0  0  0  0  0  0  0  0  0  0
   -5.5143   -0.0186  -20.5097 C   0  0  0  0  0  0  0  0  0  0  0  0
   -5.6803    0.0130  -22.6813 H   0  0  0  0  0  0  0  0  0  0  0  0
   -3.6820    1.3887  -23.0271 H   0  0  0  0  0  0  0  0  0  0  0  0
   -2.4009    2.2760  -21.0888 H   0  0  0  0  0  0  0  0  0  0  0  0
   -3.1215    1.7228  -18.7808 H   0  0  0  0  0  0  0  0  0  0  0  0
   -4.6494    0.5679  -17.2504 H   0  0  0  0  0  0  0  0  0  0  0  0
   -7.8371   -1.6534  -18.6290 H   0  0  0  0  0  0  0  0  0  0  0  0
   -7.0934   -2.5543  -22.0057 C   0  0  0  0  0  0  0  0  0  0  0  0
   -8.4222   -2.9564  -22.6559 C   0  0  2  0  0  0  0  0  0  0  0  0
   -8.2033   -3.7291  -23.9431 C   0  0  0  0  0  0  0  0  0  0  0  0
   -9.4513   -4.1448  -24.5287 N   0  0  0  0  0  0  0  0  0  0  0  0
   -9.4808   -4.9377  -25.6420 C   0  0  0  0  0  0  0  0  0  0  0  0
   -8.3296   -5.0909  -26.4581 C   0  0  0  0  0  0  0  0  0  0  0  0
   -8.3795   -5.7495  -27.6019 N   0  0  0  0  0  0  0  0  0  0  0  0
   -9.5494   -6.3118  -27.9334 C   0  0  0  0  0  0  0  0  0  0  0  0
  -10.6504   -6.2294  -27.0960 C   0  0  0  0  0  0  0  0  0  0  0  0
  -10.6358   -5.5301  -25.9580 N   0  0  0  0  0  0  0  0  0  0  0  0
  -11.5804   -6.7243  -27.3848 H   0  0  0  0  0  0  0  0  0  0  0  0
   -9.6171   -6.8094  -28.8985 H   0  0  0  0  0  0  0  0  0  0  0  0
   -7.3669   -4.6535  -26.1748 H   0  0  0  0  0  0  0  0  0  0  0  0
  -10.3065   -4.1321  -23.9897 H   0  0  0  0  0  0  0  0  0  0  0  0
   -7.5563   -4.6015  -23.7635 H   0  0  0  0  0  0  0  0  0  0  0  0
   -7.6687   -3.0874  -24.6582 H   0  0  0  0  0  0  0  0  0  0  0  0
   -8.9313   -3.6123  -21.9476 H   0  0  0  0  0  0  0  0  0  0  0  0
   -6.3323   -2.2956  -22.7595 H   0  0  0  0  0  0  0  0  0  0  0  0
   -6.6766   -3.3568  -21.3841 H   0  0  0  0  0  0  0  0  0  0  0  0
  -10.7795   -1.8783  -22.6002 C   0  0  0  0  0  0  0  0  0  0  0  0
  -11.3342   -2.8728  -21.7752 C   0  0  0  0  0  0  0  0  0  0  0  0
  -12.6984   -2.8790  -21.5133 C   0  0  0  0  0  0  0  0  0  0  0  0
  -13.3601   -3.8841  -20.2688 Cl  0  0  0  0  0  0  0  0  0  0  0  0
  -13.5799   -2.0205  -22.1641 C   0  0  0  0  0  0  0  0  0  0  0  0
  -13.0508   -1.0892  -23.0244 C   0  0  0  0  0  0  0  0  0  0  0  0
  -11.6750   -0.9697  -23.1826 C   0  0  0  0  0  0  0  0  0  0  0  0
  -11.2170    0.2475  -23.9102 C   0  0  0  0  0  0  0  0  0  0  0  0
  -12.0052    1.1256  -24.2426 O   0  0  0  0  0  0  0  0  0  0  0  0
  -13.6790   -0.3768  -23.5464 H   0  0  0  0  0  0  0  0  0  0  0  0
  -14.6431   -2.0626  -21.9538 H   0  0  0  0  0  0  0  0  0  0  0  0
  -10.7216   -3.6198  -21.2790 H   0  0  0  0  0  0  0  0  0  0  0  0
   -7.9909   -0.5596  -24.1267 H   0  0  0  0  0  0  0  0  0  0  0  0
   -9.2535   -1.5273  -24.9271 H   0  0  0  0  0  0  0  0  0  0  0  0
  -10.1567    2.2529  -24.7863 H   0  0  0  0  0  0  0  0  0  0  0  0
   -8.9514    1.3605  -25.7196 H   0  0  0  0  0  0  0  0  0  0  0  0
   -9.4190    2.7095  -22.3438 H   0  0  0  0  0  0  0  0  0  0  0  0
   -7.8309    3.9413  -21.1337 H   0  0  0  0  0  0  0  0  0  0  0  0
   -6.8422    2.4796  -21.5069 H   0  0  0  0  0  0  0  0  0  0  0  0
   -6.7433    3.9226  -22.5283 H   0  0  0  0  0  0  0  0  0  0  0  0
  1  2  1  0
  2  3  1  0
  3  4  2  0
  3  5  1  0
  5  6  1  0
  6  7  1  0
  8  7  1  6
  8  9  1  0
  9 10  2  0
  9 11  1  0
 11 12  1  0
 12 13  2  0
 13 14  1  0
 14 15  2  0
 15 16  1  0
 16 17  2  0
 17 18  1  0
 18 19  2  0
 19 20  1  0
 20 21  2  0
 20 22  1  0
 19 23  1  0
 18 24  1  0
 17 25  1  0
 15 26  1  0
 13 27  1  0
 11 28  1  0
 28 29  1  0
 29 30  1  0
 30 31  1  0
 31 32  1  0
 32 33  2  0
 33 34  1  0
 34 35  2  0
 35 36  1  0
 36 37  2  0
 36 38  1  0
 35 39  1  0
 33 40  1  0
 31 41  1  0
 30 42  1  0
 30 43  1  0
 29 44  1  1
 28 45  1  0
 28 46  1  0
  8 47  1  0
 47 48  2  0
 48 49  1  0
 49 50  1  0
 49 51  2  0
 51 52  1  0
 52 53  2  0
 53 54  1  0
 54 55  2  0
 52 56  1  0
 51 57  1  0
 48 58  1  0
  7 59  1  0
  7 60  1  0
  5 61  1  0
  5 62  1  0
  2 63  1  0
  1 64  1  0
  1 65  1  0
  1 66  1  0
 54  6  1  0
 29  8  1  0
 37 32  1  0
 53 47  1  0
 21 12  1  0
 21 16  1  0
M  END
>  <cnnaffinities>  (89) 
[6.38537, 6.32909]

>  <score>  (89) 
6.38537

>  <index>  (89) 
91

>  <Smiles>  (89) 
C(N(C(=O)C(N1C([C@@]2(C(=O)N(c3c(nc(c4c(c(c(c(c34)[H])[H])[H])[H])[H])[H])C([C@@]2(C(N(c2c(nc(c(n2)[H])[H])[H])[H])([H])[H])[H])([H])[H])c2c(c(Cl)c(c(c2C1=O)[H])[H])[H])([H])[H])([H])[H])[H])([H])([H])[H]

>  <h>  (89) 
<NA>

>  <Training>  (89) 
True

>  <Success>  (89) 
True

>  <enamine_searched>  (89) 
False

>  <enamine_id>  (89) 
nan

$$$$

     RDKit          3D

 60 65  0  0  0  0  0  0  0  0999 V2000
   -7.1792   -5.6283  -24.8871 C   0  0  0  0  0  0  0  0  0  0  0  0
   -7.4398   -4.9381  -23.6893 O   0  0  0  0  0  0  0  0  0  0  0  0
   -8.1728   -3.7648  -23.9340 C   0  0  0  0  0  0  0  0  0  0  0  0
   -8.3678   -3.0041  -22.6328 C   0  0  1  0  0  0  0  0  0  0  0  0
   -7.0332   -2.5026  -22.0448 C   0  0  0  0  0  0  0  0  0  0  0  0
   -7.4321   -1.3451  -21.2664 N   0  0  0  0  0  0  0  0  0  0  0  0
   -6.6489   -0.8191  -20.2080 C   0  0  0  0  0  0  0  0  0  0  0  0
   -7.0051   -1.0158  -18.8943 C   0  0  0  0  0  0  0  0  0  0  0  0
   -6.3067   -0.5344  -17.8356 N   0  0  0  0  0  0  0  0  0  0  0  0
   -5.2413    0.1882  -18.0888 C   0  0  0  0  0  0  0  0  0  0  0  0
   -4.7607    0.4736  -19.4001 C   0  0  0  0  0  0  0  0  0  0  0  0
   -3.6545    1.3348  -19.6426 C   0  0  0  0  0  0  0  0  0  0  0  0
   -3.2355    1.5835  -20.9220 C   0  0  0  0  0  0  0  0  0  0  0  0
   -3.8538    0.9332  -22.0130 C   0  0  0  0  0  0  0  0  0  0  0  0
   -4.9147    0.0849  -21.7997 C   0  0  0  0  0  0  0  0  0  0  0  0
   -5.4414   -0.1086  -20.4943 C   0  0  0  0  0  0  0  0  0  0  0  0
   -5.3727   -0.4157  -22.6454 H   0  0  0  0  0  0  0  0  0  0  0  0
   -3.5157    1.1397  -23.0265 H   0  0  0  0  0  0  0  0  0  0  0  0
   -2.4403    2.2977  -21.1107 H   0  0  0  0  0  0  0  0  0  0  0  0
   -3.1714    1.8161  -18.7975 H   0  0  0  0  0  0  0  0  0  0  0  0
   -4.6950    0.5841  -17.2315 H   0  0  0  0  0  0  0  0  0  0  0  0
   -7.8939   -1.5947  -18.6525 H   0  0  0  0  0  0  0  0  0  0  0  0
   -8.7090   -0.8969  -21.5486 C   0  0  0  0  0  0  0  0  0  0  0  0
   -9.2733   -0.0008  -20.9605 O   0  0  0  0  0  0  0  0  0  0  0  0
   -9.2646   -1.7344  -22.7370 C   0  0  1  0  0  0  0  0  0  0  0  0
   -9.0116   -0.9968  -24.0888 C   0  0  0  0  0  0  0  0  0  0  0  0
   -9.8497    0.1760  -24.2637 N   0  0  0  0  0  0  0  0  0  0  0  0
   -9.2973    1.4010  -24.8309 C   0  0  0  0  0  0  0  0  0  0  0  0
   -8.3442    2.1174  -23.9134 C   0  0  0  0  0  0  0  0  0  0  0  0
   -8.6182    3.0850  -22.9103 C   0  0  0  0  0  0  0  0  0  0  0  0
   -7.5132    3.4809  -22.2738 N   0  0  0  0  0  0  0  0  0  0  0  0
   -6.5384    2.7720  -22.8577 N   0  0  0  0  0  0  0  0  0  0  0  0
   -6.9793    1.9394  -23.8313 C   0  0  0  0  0  0  0  0  0  0  0  0
   -6.3111    1.2876  -24.3723 H   0  0  0  0  0  0  0  0  0  0  0  0
   -5.6038    2.8005  -22.4774 H   0  0  0  0  0  0  0  0  0  0  0  0
   -9.5895    3.4774  -22.6462 H   0  0  0  0  0  0  0  0  0  0  0  0
   -8.8285    1.1822  -25.8026 H   0  0  0  0  0  0  0  0  0  0  0  0
  -10.1606    2.0367  -25.0389 H   0  0  0  0  0  0  0  0  0  0  0  0
  -11.1872    0.1418  -24.0153 C   0  0  0  0  0  0  0  0  0  0  0  0
  -11.9552    1.0189  -24.3912 O   0  0  0  0  0  0  0  0  0  0  0  0
  -11.6524   -1.0369  -23.2331 C   0  0  0  0  0  0  0  0  0  0  0  0
  -13.0290   -1.1242  -23.0716 C   0  0  0  0  0  0  0  0  0  0  0  0
  -13.5667   -2.0346  -22.1969 C   0  0  0  0  0  0  0  0  0  0  0  0
  -12.6962   -2.8930  -21.5331 C   0  0  0  0  0  0  0  0  0  0  0  0
  -13.4022   -3.8752  -20.2995 Cl  0  0  0  0  0  0  0  0  0  0  0  0
  -11.3306   -2.9101  -21.7765 C   0  0  0  0  0  0  0  0  0  0  0  0
  -10.7670   -1.9382  -22.6173 C   0  0  0  0  0  0  0  0  0  0  0  0
  -10.7237   -3.6802  -21.3087 H   0  0  0  0  0  0  0  0  0  0  0  0
  -14.6283   -2.0717  -21.9789 H   0  0  0  0  0  0  0  0  0  0  0  0
  -13.6361   -0.4001  -23.6008 H   0  0  0  0  0  0  0  0  0  0  0  0
   -9.1959   -1.7045  -24.9109 H   0  0  0  0  0  0  0  0  0  0  0  0
   -7.9742   -0.6594  -24.1447 H   0  0  0  0  0  0  0  0  0  0  0  0
   -6.3297   -2.2359  -22.8472 H   0  0  0  0  0  0  0  0  0  0  0  0
   -6.5329   -3.2356  -21.4055 H   0  0  0  0  0  0  0  0  0  0  0  0
   -8.8027   -3.6923  -21.9048 H   0  0  0  0  0  0  0  0  0  0  0  0
   -9.1500   -4.0079  -24.3866 H   0  0  0  0  0  0  0  0  0  0  0  0
   -7.6235   -3.1289  -24.6521 H   0  0  0  0  0  0  0  0  0  0  0  0
   -6.5620   -5.0261  -25.5756 H   0  0  0  0  0  0  0  0  0  0  0  0
   -8.1113   -5.9025  -25.4099 H   0  0  0  0  0  0  0  0  0  0  0  0
   -6.6351   -6.5420  -24.6370 H   0  0  0  0  0  0  0  0  0  0  0  0
  1  2  1  0
  2  3  1  0
  3  4  1  0
  4  5  1  0
  5  6  1  0
  6  7  1  0
  7  8  2  0
  8  9  1  0
  9 10  2  0
 10 11  1  0
 11 12  2  0
 12 13  1  0
 13 14  2  0
 14 15  1  0
 15 16  2  0
 15 17  1  0
 14 18  1  0
 13 19  1  0
 12 20  1  0
 10 21  1  0
  8 22  1  0
  6 23  1  0
 23 24  2  0
 23 25  1  0
 25 26  1  6
 26 27  1  0
 27 28  1  0
 28 29  1  0
 29 30  1  0
 30 31  2  0
 31 32  1  0
 32 33  1  0
 33 34  1  0
 32 35  1  0
 30 36  1  0
 28 37  1  0
 28 38  1  0
 27 39  1  0
 39 40  2  0
 39 41  1  0
 41 42  2  0
 42 43  1  0
 43 44  2  0
 44 45  1  0
 44 46  1  0
 46 47  2  0
 46 48  1  0
 43 49  1  0
 42 50  1  0
 26 51  1  0
 26 52  1  0
  5 53  1  0
  5 54  1  0
  4 55  1  1
  3 56  1  0
  3 57  1  0
  1 58  1  0
  1 59  1  0
  1 60  1  0
 25  4  1  0
 33 29  2  0
 47 41  1  0
 16  7  1  0
 47 25  1  0
 16 11  1  0
M  END
>  <cnnaffinities>  (90) 
[6.89262, 6.5903, 6.14164]

>  <score>  (90) 
6.89262

>  <index>  (90) 
92

>  <Smiles>  (90) 
C(OC([C@]1(C(N(c2c(nc(c3c(c(c(c(c23)[H])[H])[H])[H])[H])[H])C(=O)[C@]21C(N(C(c1c(nn(c1[H])[H])[H])([H])[H])C(=O)c1c(c(c(Cl)c(c21)[H])[H])[H])([H])[H])([H])[H])[H])([H])[H])([H])([H])[H]

>  <h>  (90) 
<NA>

>  <Training>  (90) 
True

>  <Success>  (90) 
True

>  <enamine_searched>  (90) 
False

>  <enamine_id>  (90) 
nan

$$$$

     RDKit          3D

 62 67  0  0  0  0  0  0  0  0999 V2000
  -14.7643   -3.6575  -24.3259 C   0  0  0  0  0  0  0  0  0  0  0  0
  -13.8772   -2.4721  -23.9096 C   0  0  0  0  0  0  0  0  0  0  0  0
  -13.9299   -2.1771  -22.4897 N   0  0  0  0  0  0  0  0  0  0  0  0
  -14.9476   -1.4068  -22.0963 N   0  0  0  0  0  0  0  0  0  0  0  0
  -14.9727   -1.5171  -20.7795 C   0  0  0  0  0  0  0  0  0  0  0  0
  -13.9565   -2.3644  -20.3108 C   0  0  0  0  0  0  0  0  0  0  0  0
  -13.2826   -2.7693  -21.4478 C   0  0  0  0  0  0  0  0  0  0  0  0
  -12.2830   -3.8658  -21.6754 C   0  0  0  0  0  0  0  0  0  0  0  0
  -11.0671   -3.6065  -22.4614 N   0  0  0  0  0  0  0  0  0  0  0  0
   -9.9004   -3.2650  -21.6498 C   0  0  0  0  0  0  0  0  0  0  0  0
   -8.6938   -2.7901  -22.4775 C   0  0  2  0  0  0  0  0  0  0  0  0
   -7.5371   -2.6465  -21.4712 C   0  0  0  0  0  0  0  0  0  0  0  0
   -6.9269   -3.5427  -20.9192 O   0  0  0  0  0  0  0  0  0  0  0  0
   -7.3088   -1.3071  -21.2555 N   0  0  0  0  0  0  0  0  0  0  0  0
   -6.5167   -0.8454  -20.1807 C   0  0  0  0  0  0  0  0  0  0  0  0
   -6.8394   -1.1220  -18.8769 C   0  0  0  0  0  0  0  0  0  0  0  0
   -6.2006   -0.5771  -17.8095 N   0  0  0  0  0  0  0  0  0  0  0  0
   -5.1947    0.2312  -18.0509 C   0  0  0  0  0  0  0  0  0  0  0  0
   -4.7211    0.5522  -19.3577 C   0  0  0  0  0  0  0  0  0  0  0  0
   -3.6018    1.3956  -19.5886 C   0  0  0  0  0  0  0  0  0  0  0  0
   -3.1889    1.6622  -20.8663 C   0  0  0  0  0  0  0  0  0  0  0  0
   -3.8685    1.1060  -21.9741 C   0  0  0  0  0  0  0  0  0  0  0  0
   -4.9533    0.2890  -21.7769 C   0  0  0  0  0  0  0  0  0  0  0  0
   -5.4035    0.0018  -20.4616 C   0  0  0  0  0  0  0  0  0  0  0  0
   -5.4755   -0.1529  -22.6192 H   0  0  0  0  0  0  0  0  0  0  0  0
   -3.5364    1.3294  -22.9840 H   0  0  0  0  0  0  0  0  0  0  0  0
   -2.3352    2.3114  -21.0405 H   0  0  0  0  0  0  0  0  0  0  0  0
   -3.0921    1.8296  -18.7322 H   0  0  0  0  0  0  0  0  0  0  0  0
   -4.6933    0.6706  -17.1871 H   0  0  0  0  0  0  0  0  0  0  0  0
   -7.6568   -1.8018  -18.6429 H   0  0  0  0  0  0  0  0  0  0  0  0
   -8.2818   -0.4505  -21.9098 C   0  0  0  0  0  0  0  0  0  0  0  0
   -8.8286   -1.3335  -23.0396 C   0  0  2  0  0  0  0  0  0  0  0  0
  -10.2178   -0.8966  -23.4922 C   0  0  0  0  0  0  0  0  0  0  0  0
  -10.2097    0.1487  -23.8165 H   0  0  0  0  0  0  0  0  0  0  0  0
  -10.5757   -1.5031  -24.3305 H   0  0  0  0  0  0  0  0  0  0  0  0
  -10.9340   -0.9837  -22.6694 H   0  0  0  0  0  0  0  0  0  0  0  0
   -8.1385   -1.2732  -23.8935 H   0  0  0  0  0  0  0  0  0  0  0  0
   -7.8198    0.4768  -22.2638 H   0  0  0  0  0  0  0  0  0  0  0  0
   -9.0831   -0.1610  -21.2103 H   0  0  0  0  0  0  0  0  0  0  0  0
   -8.4125   -3.8412  -23.5213 C   0  0  0  0  0  0  0  0  0  0  0  0
   -7.1100   -4.0327  -23.9973 C   0  0  0  0  0  0  0  0  0  0  0  0
   -6.8806   -5.0367  -24.9182 C   0  0  0  0  0  0  0  0  0  0  0  0
   -5.6264   -5.2287  -25.3581 F   0  0  0  0  0  0  0  0  0  0  0  0
   -7.8896   -5.8576  -25.4159 C   0  0  0  0  0  0  0  0  0  0  0  0
   -9.1767   -5.6507  -24.9490 C   0  0  0  0  0  0  0  0  0  0  0  0
   -9.4440   -4.6593  -23.9997 C   0  0  0  0  0  0  0  0  0  0  0  0
  -10.8553   -4.4859  -23.5209 C   0  0  0  0  0  0  0  0  0  0  0  0
  -11.7767   -5.0621  -24.0836 O   0  0  0  0  0  0  0  0  0  0  0  0
   -9.9982   -6.2733  -25.2893 H   0  0  0  0  0  0  0  0  0  0  0  0
   -7.6467   -6.6413  -26.1333 H   0  0  0  0  0  0  0  0  0  0  0  0
   -6.2767   -3.4424  -23.6185 H   0  0  0  0  0  0  0  0  0  0  0  0
  -10.1827   -2.4871  -20.9421 H   0  0  0  0  0  0  0  0  0  0  0  0
   -9.5437   -4.1215  -21.0563 H   0  0  0  0  0  0  0  0  0  0  0  0
  -11.9938   -4.2765  -20.7009 H   0  0  0  0  0  0  0  0  0  0  0  0
  -12.8130   -4.6263  -22.2526 H   0  0  0  0  0  0  0  0  0  0  0  0
  -13.7084   -2.5625  -19.2828 H   0  0  0  0  0  0  0  0  0  0  0  0
  -15.7709   -1.0075  -20.2480 H   0  0  0  0  0  0  0  0  0  0  0  0
  -12.8324   -2.6592  -24.1842 H   0  0  0  0  0  0  0  0  0  0  0  0
  -14.2275   -1.5378  -24.3565 H   0  0  0  0  0  0  0  0  0  0  0  0
  -15.0562   -3.5754  -25.3806 H   0  0  0  0  0  0  0  0  0  0  0  0
  -15.6926   -3.6986  -23.7381 H   0  0  0  0  0  0  0  0  0  0  0  0
  -14.1942   -4.5882  -24.2103 H   0  0  0  0  0  0  0  0  0  0  0  0
  1  2  1  0
  2  3  1  0
  3  4  1  0
  4  5  2  0
  5  6  1  0
  6  7  2  0
  7  8  1  0
  8  9  1  0
  9 10  1  0
 11 10  1  1
 11 12  1  0
 12 13  2  0
 12 14  1  0
 14 15  1  0
 15 16  2  0
 16 17  1  0
 17 18  2  0
 18 19  1  0
 19 20  2  0
 20 21  1  0
 21 22  2  0
 22 23  1  0
 23 24  2  0
 23 25  1  0
 22 26  1  0
 21 27  1  0
 20 28  1  0
 18 29  1  0
 16 30  1  0
 14 31  1  0
 31 32  1  0
 32 33  1  0
 33 34  1  0
 33 35  1  0
 33 36  1  0
 32 37  1  6
 31 38  1  0
 31 39  1  0
 11 40  1  0
 40 41  2  0
 41 42  1  0
 42 43  1  0
 42 44  2  0
 44 45  1  0
 45 46  2  0
 46 47  1  0
 47 48  2  0
 45 49  1  0
 44 50  1  0
 41 51  1  0
 10 52  1  0
 10 53  1  0
  8 54  1  0
  8 55  1  0
  6 56  1  0
  5 57  1  0
  2 58  1  0
  2 59  1  0
  1 60  1  0
  1 61  1  0
  1 62  1  0
  7  3  1  0
 47  9  1  0
 32 11  1  0
 46 40  1  0
 24 15  1  0
 24 19  1  0
M  END
>  <cnnaffinities>  (91) 
[7.05097, 6.83652, 6.09535, 6.4291]

>  <score>  (91) 
7.05097

>  <index>  (91) 
93

>  <Smiles>  (91) 
C(C(n1nc(c(c1C(N1C([C@@]2(C(=O)N(c3c(nc(c4c(c(c(c(c34)[H])[H])[H])[H])[H])[H])C([C@@]2(C([H])([H])[H])[H])([H])[H])c2c(c(F)c(c(c2C1=O)[H])[H])[H])([H])[H])([H])[H])[H])[H])([H])[H])([H])([H])[H]

>  <h>  (91) 
<NA>

>  <Training>  (91) 
True

>  <Success>  (91) 
True

>  <enamine_searched>  (91) 
False

>  <enamine_id>  (91) 
nan

$$$$

     RDKit          3D

 66 71  0  0  0  0  0  0  0  0999 V2000
   -7.3579    3.4091  -21.8248 C   0  0  0  0  0  0  0  0  0  0  0  0
   -8.2060    2.9423  -22.9045 N   0  0  0  0  0  0  0  0  0  0  0  0
   -7.6386    2.2511  -23.9146 C   0  0  0  0  0  0  0  0  0  0  0  0
   -6.4243    2.1316  -24.0230 O   0  0  0  0  0  0  0  0  0  0  0  0
   -8.5938    1.6314  -24.9441 C   0  0  0  0  0  0  0  0  0  0  0  0
   -9.3268    0.4828  -24.4436 N   0  0  0  0  0  0  0  0  0  0  0  0
   -8.6140   -0.7718  -24.2732 C   0  0  0  0  0  0  0  0  0  0  0  0
   -9.0221   -1.4968  -22.9658 C   0  0  2  0  0  0  0  0  0  0  0  0
   -8.4794   -0.7091  -21.7394 C   0  0  0  0  0  0  0  0  0  0  0  0
   -8.8975    0.3393  -21.2941 O   0  0  0  0  0  0  0  0  0  0  0  0
   -7.4093   -1.3917  -21.2120 N   0  0  0  0  0  0  0  0  0  0  0  0
   -6.6091   -0.8150  -20.1830 C   0  0  0  0  0  0  0  0  0  0  0  0
   -6.9117   -1.0426  -18.8652 C   0  0  0  0  0  0  0  0  0  0  0  0
   -6.2096   -0.5475  -17.8141 N   0  0  0  0  0  0  0  0  0  0  0  0
   -5.1709    0.2075  -18.0786 C   0  0  0  0  0  0  0  0  0  0  0  0
   -4.7317    0.5256  -19.3954 C   0  0  0  0  0  0  0  0  0  0  0  0
   -3.6026    1.3580  -19.6406 C   0  0  0  0  0  0  0  0  0  0  0  0
   -3.2149    1.6488  -20.9193 C   0  0  0  0  0  0  0  0  0  0  0  0
   -3.9364    1.1204  -22.0131 C   0  0  0  0  0  0  0  0  0  0  0  0
   -5.0308    0.3160  -21.8017 C   0  0  0  0  0  0  0  0  0  0  0  0
   -5.4677   -0.0014  -20.4867 C   0  0  0  0  0  0  0  0  0  0  0  0
   -5.5874   -0.0713  -22.6498 H   0  0  0  0  0  0  0  0  0  0  0  0
   -3.6445    1.3663  -23.0285 H   0  0  0  0  0  0  0  0  0  0  0  0
   -2.3633    2.3010  -21.0983 H   0  0  0  0  0  0  0  0  0  0  0  0
   -3.0749    1.7748  -18.7858 H   0  0  0  0  0  0  0  0  0  0  0  0
   -4.6201    0.6120  -17.2273 H   0  0  0  0  0  0  0  0  0  0  0  0
   -7.7627   -1.6660  -18.6022 H   0  0  0  0  0  0  0  0  0  0  0  0
   -7.0761   -2.6105  -21.9239 C   0  0  0  0  0  0  0  0  0  0  0  0
   -8.3052   -2.8808  -22.8181 C   0  0  2  0  0  0  0  0  0  0  0  0
   -7.9100   -3.6484  -24.0988 C   0  0  0  0  0  0  0  0  0  0  0  0
   -9.0601   -3.9972  -24.9196 N   0  0  0  0  0  0  0  0  0  0  0  0
   -8.9594   -4.6206  -26.1264 C   0  0  0  0  0  0  0  0  0  0  0  0
  -10.1200   -4.9263  -26.8788 C   0  0  0  0  0  0  0  0  0  0  0  0
   -9.9292   -5.5448  -28.0935 C   0  0  0  0  0  0  0  0  0  0  0  0
   -8.7128   -5.8494  -28.5829 N   0  0  0  0  0  0  0  0  0  0  0  0
   -7.7011   -5.5283  -27.7896 C   0  0  0  0  0  0  0  0  0  0  0  0
   -7.7393   -4.9263  -26.5933 N   0  0  0  0  0  0  0  0  0  0  0  0
   -6.7014   -5.7822  -28.1646 H   0  0  0  0  0  0  0  0  0  0  0  0
  -10.7761   -5.8169  -28.7305 H   0  0  0  0  0  0  0  0  0  0  0  0
  -11.1224   -4.6965  -26.5200 H   0  0  0  0  0  0  0  0  0  0  0  0
   -9.9897   -3.8007  -24.5813 H   0  0  0  0  0  0  0  0  0  0  0  0
   -7.3656   -4.5683  -23.8370 H   0  0  0  0  0  0  0  0  0  0  0  0
   -7.2098   -3.0560  -24.7076 H   0  0  0  0  0  0  0  0  0  0  0  0
   -8.9968   -3.5188  -22.2597 H   0  0  0  0  0  0  0  0  0  0  0  0
   -6.8873   -3.4258  -21.2176 H   0  0  0  0  0  0  0  0  0  0  0  0
   -6.1653   -2.4851  -22.5296 H   0  0  0  0  0  0  0  0  0  0  0  0
  -10.5414   -1.5246  -22.8911 C   0  0  0  0  0  0  0  0  0  0  0  0
  -11.1862   -2.3790  -21.9866 C   0  0  0  0  0  0  0  0  0  0  0  0
  -12.5664   -2.3851  -21.9026 C   0  0  0  0  0  0  0  0  0  0  0  0
  -13.3604   -3.4503  -20.7807 Cl  0  0  0  0  0  0  0  0  0  0  0  0
  -13.3467   -1.5393  -22.6892 C   0  0  0  0  0  0  0  0  0  0  0  0
  -12.7147   -0.6391  -23.5244 C   0  0  0  0  0  0  0  0  0  0  0  0
  -11.3223   -0.5992  -23.6003 C   0  0  0  0  0  0  0  0  0  0  0  0
  -10.6925    0.5262  -24.3720 C   0  0  0  0  0  0  0  0  0  0  0  0
  -11.3590    1.4253  -24.8615 O   0  0  0  0  0  0  0  0  0  0  0  0
  -13.2732    0.0865  -24.1063 H   0  0  0  0  0  0  0  0  0  0  0  0
  -14.4267   -1.5686  -22.6012 H   0  0  0  0  0  0  0  0  0  0  0  0
  -10.6228   -3.0117  -21.3105 H   0  0  0  0  0  0  0  0  0  0  0  0
   -8.7963   -1.4437  -25.1264 H   0  0  0  0  0  0  0  0  0  0  0  0
   -7.5481   -0.5351  -24.2322 H   0  0  0  0  0  0  0  0  0  0  0  0
   -7.9592    1.3520  -25.7920 H   0  0  0  0  0  0  0  0  0  0  0  0
   -9.3541    2.3414  -25.2817 H   0  0  0  0  0  0  0  0  0  0  0  0
   -9.2044    2.8877  -22.7659 H   0  0  0  0  0  0  0  0  0  0  0  0
   -7.9883    3.8573  -21.0584 H   0  0  0  0  0  0  0  0  0  0  0  0
   -6.6558    4.1697  -22.1817 H   0  0  0  0  0  0  0  0  0  0  0  0
   -6.7715    2.5730  -21.4141 H   0  0  0  0  0  0  0  0  0  0  0  0
  1  2  1  0
  2  3  1  0
  3  4  2  0
  3  5  1  0
  5  6  1  0
  6  7  1  0
  8  7  1  6
  8  9  1  0
  9 10  2  0
  9 11  1  0
 11 12  1  0
 12 13  2  0
 13 14  1  0
 14 15  2  0
 15 16  1  0
 16 17  2  0
 17 18  1  0
 18 19  2  0
 19 20  1  0
 20 21  2  0
 20 22  1  0
 19 23  1  0
 18 24  1  0
 17 25  1  0
 15 26  1  0
 13 27  1  0
 11 28  1  0
 28 29  1  0
 29 30  1  0
 30 31  1  0
 31 32  1  0
 32 33  2  0
 33 34  1  0
 34 35  2  0
 35 36  1  0
 36 37  2  0
 36 38  1  0
 34 39  1  0
 33 40  1  0
 31 41  1  0
 30 42  1  0
 30 43  1  0
 29 44  1  1
 28 45  1  0
 28 46  1  0
  8 47  1  0
 47 48  2  0
 48 49  1  0
 49 50  1  0
 49 51  2  0
 51 52  1  0
 52 53  2  0
 53 54  1  0
 54 55  2  0
 52 56  1  0
 51 57  1  0
 48 58  1  0
  7 59  1  0
  7 60  1  0
  5 61  1  0
  5 62  1  0
  2 63  1  0
  1 64  1  0
  1 65  1  0
  1 66  1  0
 54  6  1  0
 29  8  1  0
 37 32  1  0
 53 47  1  0
 21 12  1  0
 21 16  1  0
M  END
>  <cnnaffinities>  (92) 
[6.26914]

>  <score>  (92) 
6.26914

>  <index>  (92) 
95

>  <Smiles>  (92) 
C(N(C(=O)C(N1C([C@@]2(C(=O)N(c3c(nc(c4c(c(c(c(c34)[H])[H])[H])[H])[H])[H])C([C@@]2(C(N(c2c(c(nc(n2)[H])[H])[H])[H])([H])[H])[H])([H])[H])c2c(c(Cl)c(c(c2C1=O)[H])[H])[H])([H])[H])([H])[H])[H])([H])([H])[H]

>  <h>  (92) 
<NA>

>  <Training>  (92) 
True

>  <Success>  (92) 
True

>  <enamine_searched>  (92) 
False

>  <enamine_id>  (92) 
nan

$$$$

     RDKit          3D

 66 70  0  0  0  0  0  0  0  0999 V2000
   -7.4362    3.3707  -21.7679 C   0  0  0  0  0  0  0  0  0  0  0  0
   -8.3628    2.9530  -22.7960 N   0  0  0  0  0  0  0  0  0  0  0  0
   -7.8351    2.2476  -23.8251 C   0  0  0  0  0  0  0  0  0  0  0  0
   -6.6271    2.1047  -23.9434 O   0  0  0  0  0  0  0  0  0  0  0  0
   -8.7995    1.6448  -24.8321 C   0  0  0  0  0  0  0  0  0  0  0  0
   -9.4636    0.4622  -24.3287 N   0  0  0  0  0  0  0  0  0  0  0  0
   -8.6978   -0.7614  -24.1703 C   0  0  0  0  0  0  0  0  0  0  0  0
   -9.0656   -1.5171  -22.8731 C   0  0  2  0  0  0  0  0  0  0  0  0
   -8.5409   -0.7522  -21.6403 C   0  0  0  0  0  0  0  0  0  0  0  0
   -9.0158    0.2422  -21.1328 O   0  0  0  0  0  0  0  0  0  0  0  0
   -7.4045   -1.3826  -21.1909 N   0  0  0  0  0  0  0  0  0  0  0  0
   -6.6039   -0.8109  -20.1708 C   0  0  0  0  0  0  0  0  0  0  0  0
   -6.9187   -1.0410  -18.8567 C   0  0  0  0  0  0  0  0  0  0  0  0
   -6.2207   -0.5451  -17.8060 N   0  0  0  0  0  0  0  0  0  0  0  0
   -5.1797    0.2065  -18.0759 C   0  0  0  0  0  0  0  0  0  0  0  0
   -4.7378    0.5191  -19.3929 C   0  0  0  0  0  0  0  0  0  0  0  0
   -3.6120    1.3519  -19.6382 C   0  0  0  0  0  0  0  0  0  0  0  0
   -3.2268    1.6502  -20.9162 C   0  0  0  0  0  0  0  0  0  0  0  0
   -3.9519    1.1335  -22.0157 C   0  0  0  0  0  0  0  0  0  0  0  0
   -5.0463    0.3275  -21.8066 C   0  0  0  0  0  0  0  0  0  0  0  0
   -5.4677   -0.0029  -20.4884 C   0  0  0  0  0  0  0  0  0  0  0  0
   -5.6099   -0.0355  -22.6613 H   0  0  0  0  0  0  0  0  0  0  0  0
   -3.6579    1.3881  -23.0299 H   0  0  0  0  0  0  0  0  0  0  0  0
   -2.3728    2.3006  -21.0939 H   0  0  0  0  0  0  0  0  0  0  0  0
   -3.0805    1.7627  -18.7832 H   0  0  0  0  0  0  0  0  0  0  0  0
   -4.6169    0.6050  -17.2289 H   0  0  0  0  0  0  0  0  0  0  0  0
   -7.7804   -1.6584  -18.6090 H   0  0  0  0  0  0  0  0  0  0  0  0
   -7.0407   -2.5655  -21.9414 C   0  0  0  0  0  0  0  0  0  0  0  0
   -8.3019   -2.8714  -22.7641 C   0  0  2  0  0  0  0  0  0  0  0  0
   -7.9764   -3.6059  -24.0705 C   0  0  0  0  0  0  0  0  0  0  0  0
   -9.1321   -3.9152  -24.8162 O   0  0  0  0  0  0  0  0  0  0  0  0
   -9.6991   -5.1960  -24.5686 C   0  0  0  0  0  0  0  0  0  0  0  0
  -11.1958   -5.0549  -24.7537 C   0  0  0  0  0  0  0  0  0  0  0  0
  -11.6974   -6.0098  -24.5613 H   0  0  0  0  0  0  0  0  0  0  0  0
  -11.6027   -4.2974  -24.0770 H   0  0  0  0  0  0  0  0  0  0  0  0
  -11.4130   -4.7447  -25.7799 H   0  0  0  0  0  0  0  0  0  0  0  0
   -9.0960   -6.2321  -25.5053 C   0  0  0  0  0  0  0  0  0  0  0  0
   -9.5478   -7.2141  -25.3382 H   0  0  0  0  0  0  0  0  0  0  0  0
   -8.0169   -6.3318  -25.3589 H   0  0  0  0  0  0  0  0  0  0  0  0
   -9.2729   -5.9428  -26.5445 H   0  0  0  0  0  0  0  0  0  0  0  0
   -9.4899   -5.4828  -23.5301 H   0  0  0  0  0  0  0  0  0  0  0  0
   -7.4055   -4.5218  -23.8523 H   0  0  0  0  0  0  0  0  0  0  0  0
   -7.3381   -2.9767  -24.7064 H   0  0  0  0  0  0  0  0  0  0  0  0
   -8.9494   -3.5322  -22.1830 H   0  0  0  0  0  0  0  0  0  0  0  0
   -6.1749   -2.3728  -22.5917 H   0  0  0  0  0  0  0  0  0  0  0  0
   -6.7683   -3.3808  -21.2647 H   0  0  0  0  0  0  0  0  0  0  0  0
  -10.5773   -1.6185  -22.8159 C   0  0  0  0  0  0  0  0  0  0  0  0
  -11.1932   -2.5256  -21.9445 C   0  0  0  0  0  0  0  0  0  0  0  0
  -12.5733   -2.5570  -21.8418 C   0  0  0  0  0  0  0  0  0  0  0  0
  -13.3311   -3.6263  -20.6938 Cl  0  0  0  0  0  0  0  0  0  0  0  0
  -13.3883   -1.7255  -22.6134 C   0  0  0  0  0  0  0  0  0  0  0  0
  -12.7893   -0.7938  -23.4374 C   0  0  0  0  0  0  0  0  0  0  0  0
  -11.4003   -0.7116  -23.5009 C   0  0  0  0  0  0  0  0  0  0  0  0
  -10.8254    0.4575  -24.2355 C   0  0  0  0  0  0  0  0  0  0  0  0
  -11.5319    1.3545  -24.6848 O   0  0  0  0  0  0  0  0  0  0  0  0
  -13.3677   -0.0700  -24.0059 H   0  0  0  0  0  0  0  0  0  0  0  0
  -14.4661   -1.7990  -22.5137 H   0  0  0  0  0  0  0  0  0  0  0  0
  -10.5992   -3.1761  -21.3101 H   0  0  0  0  0  0  0  0  0  0  0  0
   -8.8941   -1.4320  -25.0149 H   0  0  0  0  0  0  0  0  0  0  0  0
   -7.6387   -0.4917  -24.1659 H   0  0  0  0  0  0  0  0  0  0  0  0
   -9.5952    2.3431  -25.0972 H   0  0  0  0  0  0  0  0  0  0  0  0
   -8.1883    1.4012  -25.7039 H   0  0  0  0  0  0  0  0  0  0  0  0
   -9.3216    2.8056  -22.5227 H   0  0  0  0  0  0  0  0  0  0  0  0
   -6.8144    2.5309  -21.4582 H   0  0  0  0  0  0  0  0  0  0  0  0
   -6.7669    4.1317  -22.1545 H   0  0  0  0  0  0  0  0  0  0  0  0
   -7.9728    3.7692  -20.9141 H   0  0  0  0  0  0  0  0  0  0  0  0
  1  2  1  0
  2  3  1  0
  3  4  2  0
  3  5  1  0
  5  6  1  0
  6  7  1  0
  8  7  1  6
  8  9  1  0
  9 10  2  0
  9 11  1  0
 11 12  1  0
 12 13  2  0
 13 14  1  0
 14 15  2  0
 15 16  1  0
 16 17  2  0
 17 18  1  0
 18 19  2  0
 19 20  1  0
 20 21  2  0
 20 22  1  0
 19 23  1  0
 18 24  1  0
 17 25  1  0
 15 26  1  0
 13 27  1  0
 11 28  1  0
 28 29  1  0
 29 30  1  0
 30 31  1  0
 31 32  1  0
 32 33  1  0
 33 34  1  0
 33 35  1  0
 33 36  1  0
 32 37  1  0
 37 38  1  0
 37 39  1  0
 37 40  1  0
 32 41  1  0
 30 42  1  0
 30 43  1  0
 29 44  1  1
 28 45  1  0
 28 46  1  0
  8 47  1  0
 47 48  2  0
 48 49  1  0
 49 50  1  0
 49 51  2  0
 51 52  1  0
 52 53  2  0
 53 54  1  0
 54 55  2  0
 52 56  1  0
 51 57  1  0
 48 58  1  0
  7 59  1  0
  7 60  1  0
  5 61  1  0
  5 62  1  0
  2 63  1  0
  1 64  1  0
  1 65  1  0
  1 66  1  0
 54  6  1  0
 29  8  1  0
 53 47  1  0
 21 12  1  0
 21 16  1  0
M  END
>  <cnnaffinities>  (93) 
[6.5446]

>  <score>  (93) 
6.5446

>  <index>  (93) 
96

>  <Smiles>  (93) 
C(N(C(=O)C(N1C([C@@]2(C(=O)N(c3c(nc(c4c(c(c(c(c34)[H])[H])[H])[H])[H])[H])C([C@@]2(C(OC(C([H])([H])[H])(C([H])([H])[H])[H])([H])[H])[H])([H])[H])c2c(c(Cl)c(c(c2C1=O)[H])[H])[H])([H])[H])([H])[H])[H])([H])([H])[H]

>  <h>  (93) 
<NA>

>  <Training>  (93) 
True

>  <Success>  (93) 
True

>  <enamine_searched>  (93) 
False

>  <enamine_id>  (93) 
nan

$$$$

     RDKit          3D

 40 43  0  0  0  0  0  0  0  0999 V2000
  -10.3208   -3.4518  -25.1988 C   0  0  0  0  0  0  0  0  0  0  0  0
   -8.8621   -3.9297  -25.1061 C   0  0  2  0  0  0  0  0  0  0  0  0
   -8.7789   -5.3498  -24.5381 C   0  0  0  0  0  0  0  0  0  0  0  0
   -9.0517   -5.3701  -23.1515 O   0  0  0  0  0  0  0  0  0  0  0  0
   -8.0529   -4.6872  -22.4271 C   0  0  0  0  0  0  0  0  0  0  0  0
   -8.0173   -3.1879  -22.7568 C   0  0  1  0  0  0  0  0  0  0  0  0
   -7.9381   -2.9995  -24.2896 C   0  0  0  0  0  0  0  0  0  0  0  0
   -8.1859   -1.9533  -24.5059 H   0  0  0  0  0  0  0  0  0  0  0  0
   -6.8938   -3.1656  -24.5921 H   0  0  0  0  0  0  0  0  0  0  0  0
   -9.1238   -2.4612  -22.1563 N   0  0  0  0  0  0  0  0  0  0  0  0
   -8.7448   -1.3897  -21.3932 C   0  0  0  0  0  0  0  0  0  0  0  0
   -9.4278   -0.4845  -20.9908 O   0  0  0  0  0  0  0  0  0  0  0  0
   -7.3396   -1.5303  -21.2096 N   0  0  0  0  0  0  0  0  0  0  0  0
   -6.5851   -0.8642  -20.1916 C   0  0  0  0  0  0  0  0  0  0  0  0
   -6.9103   -1.0612  -18.8714 C   0  0  0  0  0  0  0  0  0  0  0  0
   -6.2183   -0.5429  -17.8270 N   0  0  0  0  0  0  0  0  0  0  0  0
   -5.1794    0.2067  -18.0976 C   0  0  0  0  0  0  0  0  0  0  0  0
   -4.7454    0.5203  -19.4130 C   0  0  0  0  0  0  0  0  0  0  0  0
   -3.6146    1.3519  -19.6397 C   0  0  0  0  0  0  0  0  0  0  0  0
   -3.2247    1.6559  -20.9133 C   0  0  0  0  0  0  0  0  0  0  0  0
   -3.9549    1.1419  -22.0088 C   0  0  0  0  0  0  0  0  0  0  0  0
   -5.0486    0.3342  -21.8144 C   0  0  0  0  0  0  0  0  0  0  0  0
   -5.4699   -0.0157  -20.5013 C   0  0  0  0  0  0  0  0  0  0  0  0
   -5.5957   -0.0548  -22.6666 H   0  0  0  0  0  0  0  0  0  0  0  0
   -3.6458    1.3938  -23.0174 H   0  0  0  0  0  0  0  0  0  0  0  0
   -2.3689    2.3037  -21.0904 H   0  0  0  0  0  0  0  0  0  0  0  0
   -3.0843    1.7558  -18.7818 H   0  0  0  0  0  0  0  0  0  0  0  0
   -4.6281    0.6092  -17.2480 H   0  0  0  0  0  0  0  0  0  0  0  0
   -7.7565   -1.6854  -18.5971 H   0  0  0  0  0  0  0  0  0  0  0  0
   -6.8285   -2.5277  -22.0436 C   0  0  0  0  0  0  0  0  0  0  0  0
   -5.6619   -2.8046  -22.1997 O   0  0  0  0  0  0  0  0  0  0  0  0
  -10.0895   -2.7295  -22.2716 H   0  0  0  0  0  0  0  0  0  0  0  0
   -7.0528   -5.1157  -22.6220 H   0  0  0  0  0  0  0  0  0  0  0  0
   -8.3164   -4.7792  -21.3725 H   0  0  0  0  0  0  0  0  0  0  0  0
   -9.5252   -6.0055  -25.0035 H   0  0  0  0  0  0  0  0  0  0  0  0
   -7.7699   -5.7631  -24.7185 H   0  0  0  0  0  0  0  0  0  0  0  0
   -8.4657   -3.9640  -26.1327 H   0  0  0  0  0  0  0  0  0  0  0  0
  -10.8549   -3.5834  -24.2503 H   0  0  0  0  0  0  0  0  0  0  0  0
  -10.3769   -2.3932  -25.4817 H   0  0  0  0  0  0  0  0  0  0  0  0
  -10.8596   -4.0321  -25.9608 H   0  0  0  0  0  0  0  0  0  0  0  0
  1  2  1  0
  2  3  1  0
  3  4  1  0
  4  5  1  0
  5  6  1  0
  6  7  1  0
  7  8  1  0
  7  9  1  0
  6 10  1  1
 10 11  1  0
 11 12  2  0
 11 13  1  0
 13 14  1  0
 14 15  2  0
 15 16  1  0
 16 17  2  0
 17 18  1  0
 18 19  2  0
 19 20  1  0
 20 21  2  0
 21 22  1  0
 22 23  2  0
 22 24  1  0
 21 25  1  0
 20 26  1  0
 19 27  1  0
 17 28  1  0
 15 29  1  0
 13 30  1  0
 30 31  2  0
 10 32  1  0
  5 33  1  0
  5 34  1  0
  3 35  1  0
  3 36  1  0
  2 37  1  6
  1 38  1  0
  1 39  1  0
  1 40  1  0
  7  2  1  0
 23 14  1  0
 30  6  1  0
 23 18  1  0
M  END
>  <cnnaffinities>  (94) 
[4.88813, 5.02902, 5.26832, 5.26196]

>  <score>  (94) 
4.88813

>  <index>  (94) 
97

>  <Smiles>  (94) 
C([C@@]1(C(OC([C@@]2(C1([H])[H])N(C(=O)N(c1c(nc(c3c(c(c(c(c13)[H])[H])[H])[H])[H])[H])C2=O)[H])([H])[H])([H])[H])[H])([H])([H])[H]

>  <h>  (94) 
<NA>

>  <Training>  (94) 
True

>  <Success>  (94) 
True

>  <enamine_searched>  (94) 
False

>  <enamine_id>  (94) 
nan

$$$$
