
     RDKit          3D

 66 71  0  0  0  0  0  0  0  0999 V2000
   -7.7445   -6.0979  -26.6635 C   0  0  0  0  0  0  0  0  0  0  0  0
   -7.8741   -4.6923  -26.9989 N   0  0  0  0  0  0  0  0  0  0  0  0
   -6.9954   -3.7673  -26.5446 C   0  0  0  0  0  0  0  0  0  0  0  0
   -5.9615   -4.0262  -25.9389 O   0  0  0  0  0  0  0  0  0  0  0  0
   -7.4527   -2.3214  -26.7726 C   0  0  0  0  0  0  0  0  0  0  0  0
   -8.3823   -1.8939  -25.7286 N   0  0  0  0  0  0  0  0  0  0  0  0
   -7.8680   -1.3450  -24.4781 C   0  0  0  0  0  0  0  0  0  0  0  0
   -8.7540   -1.6272  -23.2231 C   0  0  2  0  0  0  0  0  0  0  0  0
   -8.2060   -0.6790  -22.1394 C   0  0  0  0  0  0  0  0  0  0  0  0
   -8.3630    0.5232  -22.0744 O   0  0  0  0  0  0  0  0  0  0  0  0
   -7.4260   -1.4206  -21.2639 N   0  0  0  0  0  0  0  0  0  0  0  0
   -6.6106   -0.8896  -20.2348 C   0  0  0  0  0  0  0  0  0  0  0  0
   -6.8775   -1.2439  -18.9350 C   0  0  0  0  0  0  0  0  0  0  0  0
   -6.1324   -0.8900  -17.8646 N   0  0  0  0  0  0  0  0  0  0  0  0
   -5.0723   -0.1543  -18.0919 C   0  0  0  0  0  0  0  0  0  0  0  0
   -4.6797    0.2980  -19.3822 C   0  0  0  0  0  0  0  0  0  0  0  0
   -3.5513    1.1438  -19.5532 C   0  0  0  0  0  0  0  0  0  0  0  0
   -3.1710    1.5423  -20.8039 C   0  0  0  0  0  0  0  0  0  0  0  0
   -3.8796    1.0907  -21.9383 C   0  0  0  0  0  0  0  0  0  0  0  0
   -4.9822    0.2862  -21.7949 C   0  0  0  0  0  0  0  0  0  0  0  0
   -5.4391   -0.1039  -20.5037 C   0  0  0  0  0  0  0  0  0  0  0  0
   -5.5152   -0.0490  -22.6777 H   0  0  0  0  0  0  0  0  0  0  0  0
   -3.5505    1.3930  -22.9278 H   0  0  0  0  0  0  0  0  0  0  0  0
   -2.3269    2.2122  -20.9365 H   0  0  0  0  0  0  0  0  0  0  0  0
   -3.0223    1.4815  -18.6657 H   0  0  0  0  0  0  0  0  0  0  0  0
   -4.4621    0.1068  -17.2296 H   0  0  0  0  0  0  0  0  0  0  0  0
   -7.7525   -1.8539  -18.7177 H   0  0  0  0  0  0  0  0  0  0  0  0
   -7.3333   -2.8299  -21.5991 C   0  0  0  0  0  0  0  0  0  0  0  0
   -8.5224   -3.0099  -22.5440 C   0  0  2  0  0  0  0  0  0  0  0  0
   -8.4284   -4.1636  -23.5368 C   0  0  0  0  0  0  0  0  0  0  0  0
   -8.3637   -5.4789  -22.9287 N   0  0  0  0  0  0  0  0  0  0  0  0
   -7.1914   -5.9898  -22.4445 C   0  0  0  0  0  0  0  0  0  0  0  0
   -5.9439   -5.6932  -23.0224 C   0  0  0  0  0  0  0  0  0  0  0  0
   -4.8411   -6.2708  -22.4264 C   0  0  0  0  0  0  0  0  0  0  0  0
   -4.9114   -7.0356  -21.3322 N   0  0  0  0  0  0  0  0  0  0  0  0
   -6.1409   -7.2564  -20.8938 C   0  0  0  0  0  0  0  0  0  0  0  0
   -7.2874   -6.8089  -21.3879 N   0  0  0  0  0  0  0  0  0  0  0  0
   -6.2101   -7.8712  -19.9994 H   0  0  0  0  0  0  0  0  0  0  0  0
   -3.8390   -6.1010  -22.8177 H   0  0  0  0  0  0  0  0  0  0  0  0
   -5.8634   -5.0454  -23.8936 H   0  0  0  0  0  0  0  0  0  0  0  0
   -9.1432   -5.6847  -22.3179 H   0  0  0  0  0  0  0  0  0  0  0  0
   -9.3219   -4.1357  -24.1708 H   0  0  0  0  0  0  0  0  0  0  0  0
   -7.5581   -4.0405  -24.1771 H   0  0  0  0  0  0  0  0  0  0  0  0
   -9.4064   -3.1923  -21.9104 H   0  0  0  0  0  0  0  0  0  0  0  0
   -7.4209   -3.4315  -20.6892 H   0  0  0  0  0  0  0  0  0  0  0  0
   -6.3577   -3.0692  -22.0630 H   0  0  0  0  0  0  0  0  0  0  0  0
  -10.2236   -1.4735  -23.5874 C   0  0  0  0  0  0  0  0  0  0  0  0
  -11.2079   -1.2867  -22.6038 C   0  0  0  0  0  0  0  0  0  0  0  0
  -12.5485   -1.2368  -22.9655 C   0  0  0  0  0  0  0  0  0  0  0  0
  -13.7904   -1.0629  -21.7696 Cl  0  0  0  0  0  0  0  0  0  0  0  0
  -12.9580   -1.3440  -24.2925 C   0  0  0  0  0  0  0  0  0  0  0  0
  -11.9954   -1.5865  -25.2508 C   0  0  0  0  0  0  0  0  0  0  0  0
  -10.6500   -1.6989  -24.9015 C   0  0  0  0  0  0  0  0  0  0  0  0
   -9.6889   -2.1955  -25.9252 C   0  0  0  0  0  0  0  0  0  0  0  0
  -10.0586   -2.8657  -26.8953 O   0  0  0  0  0  0  0  0  0  0  0  0
  -12.2596   -1.7102  -26.2928 H   0  0  0  0  0  0  0  0  0  0  0  0
  -14.0165   -1.2911  -24.5436 H   0  0  0  0  0  0  0  0  0  0  0  0
  -10.9453   -1.2127  -21.5545 H   0  0  0  0  0  0  0  0  0  0  0  0
   -7.7749   -0.2547  -24.5691 H   0  0  0  0  0  0  0  0  0  0  0  0
   -6.8649   -1.7727  -24.3223 H   0  0  0  0  0  0  0  0  0  0  0  0
   -6.5902   -1.6545  -26.8090 H   0  0  0  0  0  0  0  0  0  0  0  0
   -7.9895   -2.2706  -27.7198 H   0  0  0  0  0  0  0  0  0  0  0  0
   -8.7993   -4.3391  -27.2237 H   0  0  0  0  0  0  0  0  0  0  0  0
   -7.5588   -6.2380  -25.5887 H   0  0  0  0  0  0  0  0  0  0  0  0
   -8.6821   -6.5900  -26.9264 H   0  0  0  0  0  0  0  0  0  0  0  0
   -6.9373   -6.5671  -27.2324 H   0  0  0  0  0  0  0  0  0  0  0  0
  1  2  1  0
  2  3  1  0
  3  4  2  0
  3  5  1  0
  5  6  1  0
  6  7  1  0
  8  7  1  6
  8  9  1  0
  9 10  2  0
  9 11  1  0
 11 12  1  0
 12 13  2  0
 13 14  1  0
 14 15  2  0
 15 16  1  0
 16 17  2  0
 17 18  1  0
 18 19  2  0
 19 20  1  0
 20 21  2  0
 20 22  1  0
 19 23  1  0
 18 24  1  0
 17 25  1  0
 15 26  1  0
 13 27  1  0
 11 28  1  0
 28 29  1  0
 29 30  1  0
 30 31  1  0
 31 32  1  0
 32 33  2  0
 33 34  1  0
 34 35  2  0
 35 36  1  0
 36 37  2  0
 36 38  1  0
 34 39  1  0
 33 40  1  0
 31 41  1  0
 30 42  1  0
 30 43  1  0
 29 44  1  1
 28 45  1  0
 28 46  1  0
  8 47  1  0
 47 48  2  0
 48 49  1  0
 49 50  1  0
 49 51  2  0
 51 52  1  0
 52 53  2  0
 53 54  1  0
 54 55  2  0
 52 56  1  0
 51 57  1  0
 48 58  1  0
  7 59  1  0
  7 60  1  0
  5 61  1  0
  5 62  1  0
  2 63  1  0
  1 64  1  0
  1 65  1  0
  1 66  1  0
 54  6  1  0
 29  8  1  0
 37 32  1  0
 53 47  1  0
 21 12  1  0
 21 16  1  0
M  END
>  <cnnaffinities>  (1) 
[6.11279, 6.60199]

>  <score>  (1) 
6.11279

>  <index>  (1) 
0

>  <Smiles>  (1) 
C(N(C(=O)C(N1C([C@@]2(C(=O)N(c3c(nc(c4c(c(c(c(c34)[H])[H])[H])[H])[H])[H])C([C@@]2(C(N(c2c(c(nc(n2)[H])[H])[H])[H])([H])[H])[H])([H])[H])c2c(c(Cl)c(c(c2C1=O)[H])[H])[H])([H])[H])([H])[H])[H])([H])([H])[H]

>  <h>  (1) 
<NA>

>  <Training>  (1) 
True

>  <Success>  (1) 
True

>  <enamine_searched>  (1) 
False

>  <enamine_id>  (1) 
nan

$$$$

     RDKit          3D

 68 73  0  0  0  0  0  0  0  0999 V2000
   -7.4649    3.3213  -21.7850 C   0  0  0  0  0  0  0  0  0  0  0  0
   -8.4578    2.8451  -22.7360 N   0  0  0  0  0  0  0  0  0  0  0  0
   -7.9959    2.1404  -23.8086 C   0  0  0  0  0  0  0  0  0  0  0  0
   -6.8016    1.9757  -24.0160 O   0  0  0  0  0  0  0  0  0  0  0  0
   -9.0392    1.5617  -24.7602 C   0  0  0  0  0  0  0  0  0  0  0  0
   -9.6461    0.3752  -24.1899 N   0  0  0  0  0  0  0  0  0  0  0  0
   -8.8595   -0.8453  -24.0932 C   0  0  0  0  0  0  0  0  0  0  0  0
   -9.1715   -1.6194  -22.7859 C   0  0  2  0  0  0  0  0  0  0  0  0
   -8.6314   -0.8238  -21.5754 C   0  0  0  0  0  0  0  0  0  0  0  0
   -9.1587    0.1193  -21.0201 O   0  0  0  0  0  0  0  0  0  0  0  0
   -7.4191   -1.3676  -21.2343 N   0  0  0  0  0  0  0  0  0  0  0  0
   -6.6240   -0.8379  -20.2001 C   0  0  0  0  0  0  0  0  0  0  0  0
   -6.9309   -1.1227  -18.8974 C   0  0  0  0  0  0  0  0  0  0  0  0
   -6.1507   -0.7872  -17.8457 N   0  0  0  0  0  0  0  0  0  0  0  0
   -5.0824   -0.0674  -18.0967 C   0  0  0  0  0  0  0  0  0  0  0  0
   -4.7123    0.3873  -19.3953 C   0  0  0  0  0  0  0  0  0  0  0  0
   -3.6206    1.2685  -19.6088 C   0  0  0  0  0  0  0  0  0  0  0  0
   -3.2651    1.6298  -20.8788 C   0  0  0  0  0  0  0  0  0  0  0  0
   -3.9856    1.1428  -21.9917 C   0  0  0  0  0  0  0  0  0  0  0  0
   -5.0793    0.3319  -21.8105 C   0  0  0  0  0  0  0  0  0  0  0  0
   -5.4758   -0.0500  -20.5002 C   0  0  0  0  0  0  0  0  0  0  0  0
   -5.6542    0.0020  -22.6712 H   0  0  0  0  0  0  0  0  0  0  0  0
   -3.6779    1.4165  -22.9955 H   0  0  0  0  0  0  0  0  0  0  0  0
   -2.4194    2.2897  -21.0402 H   0  0  0  0  0  0  0  0  0  0  0  0
   -3.0954    1.6572  -18.7401 H   0  0  0  0  0  0  0  0  0  0  0  0
   -4.4479    0.2048  -17.2514 H   0  0  0  0  0  0  0  0  0  0  0  0
   -7.8508   -1.6548  -18.6687 H   0  0  0  0  0  0  0  0  0  0  0  0
   -7.0439   -2.5492  -21.9802 C   0  0  0  0  0  0  0  0  0  0  0  0
   -8.3461   -2.9389  -22.7010 C   0  0  2  0  0  0  0  0  0  0  0  0
   -8.1001   -3.6444  -24.0361 C   0  0  0  0  0  0  0  0  0  0  0  0
   -7.5354   -4.9564  -23.8595 N   0  0  0  0  0  0  0  0  0  0  0  0
   -7.0931   -5.6671  -24.9663 C   0  0  0  0  0  0  0  0  0  0  0  0
   -6.3477   -6.8774  -24.9550 C   0  0  0  0  0  0  0  0  0  0  0  0
   -6.1229   -7.3159  -26.1874 N   0  0  0  0  0  0  0  0  0  0  0  0
   -6.7050   -6.4296  -26.9979 N   0  0  0  0  0  0  0  0  0  0  0  0
   -6.7162   -6.6818  -28.4243 C   0  0  0  0  0  0  0  0  0  0  0  0
   -5.8774   -6.1908  -28.9307 H   0  0  0  0  0  0  0  0  0  0  0  0
   -6.6252   -7.7628  -28.5497 H   0  0  0  0  0  0  0  0  0  0  0  0
   -7.6593   -6.3382  -28.8639 H   0  0  0  0  0  0  0  0  0  0  0  0
   -7.3028   -5.4120  -26.3098 C   0  0  0  0  0  0  0  0  0  0  0  0
   -7.8625   -4.6269  -26.8156 H   0  0  0  0  0  0  0  0  0  0  0  0
   -5.9872   -7.4618  -24.1125 H   0  0  0  0  0  0  0  0  0  0  0  0
   -7.1971   -5.2501  -22.9562 H   0  0  0  0  0  0  0  0  0  0  0  0
   -9.0486   -3.7342  -24.5862 H   0  0  0  0  0  0  0  0  0  0  0  0
   -7.4298   -3.0252  -24.6590 H   0  0  0  0  0  0  0  0  0  0  0  0
   -8.8856   -3.6330  -22.0485 H   0  0  0  0  0  0  0  0  0  0  0  0
   -6.2234   -2.3328  -22.6851 H   0  0  0  0  0  0  0  0  0  0  0  0
   -6.6969   -3.3253  -21.2911 H   0  0  0  0  0  0  0  0  0  0  0  0
  -10.6766   -1.7515  -22.6730 C   0  0  0  0  0  0  0  0  0  0  0  0
  -11.2570   -2.6895  -21.8168 C   0  0  0  0  0  0  0  0  0  0  0  0
  -12.6264   -2.6974  -21.6221 C   0  0  0  0  0  0  0  0  0  0  0  0
  -13.3009   -3.7434  -20.4196 Cl  0  0  0  0  0  0  0  0  0  0  0  0
  -13.4833   -1.8536  -22.3260 C   0  0  0  0  0  0  0  0  0  0  0  0
  -12.9164   -0.9124  -23.1548 C   0  0  0  0  0  0  0  0  0  0  0  0
  -11.5332   -0.8265  -23.2831 C   0  0  0  0  0  0  0  0  0  0  0  0
  -10.9995    0.3573  -24.0186 C   0  0  0  0  0  0  0  0  0  0  0  0
  -11.7302    1.2605  -24.4071 O   0  0  0  0  0  0  0  0  0  0  0  0
  -13.5153   -0.1923  -23.6985 H   0  0  0  0  0  0  0  0  0  0  0  0
  -14.5587   -1.9181  -22.1979 H   0  0  0  0  0  0  0  0  0  0  0  0
  -10.6567   -3.4103  -21.2762 H   0  0  0  0  0  0  0  0  0  0  0  0
   -9.0811   -1.4955  -24.9515 H   0  0  0  0  0  0  0  0  0  0  0  0
   -7.7982   -0.5788  -24.1332 H   0  0  0  0  0  0  0  0  0  0  0  0
   -8.5464    1.3189  -25.7117 H   0  0  0  0  0  0  0  0  0  0  0  0
   -9.8478    2.2758  -24.9495 H   0  0  0  0  0  0  0  0  0  0  0  0
   -9.3893    2.6398  -22.3916 H   0  0  0  0  0  0  0  0  0  0  0  0
   -7.9076    4.1047  -21.1660 H   0  0  0  0  0  0  0  0  0  0  0  0
   -7.0619    2.4958  -21.1683 H   0  0  0  0  0  0  0  0  0  0  0  0
   -6.6504    3.7712  -22.3613 H   0  0  0  0  0  0  0  0  0  0  0  0
  1  2  1  0
  2  3  1  0
  3  4  2  0
  3  5  1  0
  5  6  1  0
  6  7  1  0
  8  7  1  6
  8  9  1  0
  9 10  2  0
  9 11  1  0
 11 12  1  0
 12 13  2  0
 13 14  1  0
 14 15  2  0
 15 16  1  0
 16 17  2  0
 17 18  1  0
 18 19  2  0
 19 20  1  0
 20 21  2  0
 20 22  1  0
 19 23  1  0
 18 24  1  0
 17 25  1  0
 15 26  1  0
 13 27  1  0
 11 28  1  0
 28 29  1  0
 29 30  1  0
 30 31  1  0
 31 32  1  0
 32 33  1  0
 33 34  2  0
 34 35  1  0
 35 36  1  0
 36 37  1  0
 36 38  1  0
 36 39  1  0
 35 40  1  0
 40 41  1  0
 33 42  1  0
 31 43  1  0
 30 44  1  0
 30 45  1  0
 29 46  1  1
 28 47  1  0
 28 48  1  0
  8 49  1  0
 49 50  2  0
 50 51  1  0
 51 52  1  0
 51 53  2  0
 53 54  1  0
 54 55  2  0
 55 56  1  0
 56 57  2  0
 54 58  1  0
 53 59  1  0
 50 60  1  0
  7 61  1  0
  7 62  1  0
  5 63  1  0
  5 64  1  0
  2 65  1  0
  1 66  1  0
  1 67  1  0
  1 68  1  0
 56  6  1  0
 29  8  1  0
 40 32  2  0
 55 49  1  0
 21 12  1  0
 21 16  1  0
M  END
>  <cnnaffinities>  (2) 
[6.63195]

>  <score>  (2) 
6.63195

>  <index>  (2) 
1

>  <Smiles>  (2) 
C(N(C(=O)C(N1C([C@@]2(C(=O)N(c3c(nc(c4c(c(c(c(c34)[H])[H])[H])[H])[H])[H])C([C@@]2(C(N(c2c(nn(C([H])([H])[H])c2[H])[H])[H])([H])[H])[H])([H])[H])c2c(c(Cl)c(c(c2C1=O)[H])[H])[H])([H])[H])([H])[H])[H])([H])([H])[H]

>  <h>  (2) 
<NA>

>  <Training>  (2) 
True

>  <Success>  (2) 
True

>  <enamine_searched>  (2) 
False

>  <enamine_id>  (2) 
nan

$$$$

     RDKit          3D

 60 65  0  0  0  0  0  0  0  0999 V2000
   -6.3298    1.0726  -30.6307 C   0  0  0  0  0  0  0  0  0  0  0  0
   -6.6977    1.2276  -29.1778 C   0  0  0  0  0  0  0  0  0  0  0  0
   -6.0603    0.4854  -28.1821 C   0  0  0  0  0  0  0  0  0  0  0  0
   -6.3739    0.5821  -26.8924 N   0  0  0  0  0  0  0  0  0  0  0  0
   -7.3663    1.4210  -26.5736 C   0  0  0  0  0  0  0  0  0  0  0  0
   -7.7721    1.5321  -25.1235 C   0  0  0  0  0  0  0  0  0  0  0  0
   -8.7250    0.5310  -24.6844 N   0  0  0  0  0  0  0  0  0  0  0  0
   -8.2579   -0.8093  -24.4110 C   0  0  0  0  0  0  0  0  0  0  0  0
   -8.8783   -1.3469  -23.1008 C   0  0  2  0  0  0  0  0  0  0  0  0
   -8.3061   -0.5413  -21.9094 C   0  0  0  0  0  0  0  0  0  0  0  0
   -8.5274    0.6119  -21.6196 O   0  0  0  0  0  0  0  0  0  0  0  0
   -7.4434   -1.3497  -21.2096 N   0  0  0  0  0  0  0  0  0  0  0  0
   -6.6292   -0.8017  -20.1890 C   0  0  0  0  0  0  0  0  0  0  0  0
   -6.9291   -1.0748  -18.8832 C   0  0  0  0  0  0  0  0  0  0  0  0
   -6.1742   -0.6773  -17.8320 N   0  0  0  0  0  0  0  0  0  0  0  0
   -5.1116    0.0476  -18.0851 C   0  0  0  0  0  0  0  0  0  0  0  0
   -4.7195    0.4709  -19.3927 C   0  0  0  0  0  0  0  0  0  0  0  0
   -3.6063    1.3303  -19.6284 C   0  0  0  0  0  0  0  0  0  0  0  0
   -3.2185    1.6371  -20.9045 C   0  0  0  0  0  0  0  0  0  0  0  0
   -3.9245    1.1045  -22.0077 C   0  0  0  0  0  0  0  0  0  0  0  0
   -5.0237    0.3060  -21.8068 C   0  0  0  0  0  0  0  0  0  0  0  0
   -5.4755   -0.0042  -20.4899 C   0  0  0  0  0  0  0  0  0  0  0  0
   -5.5567   -0.1051  -22.6605 H   0  0  0  0  0  0  0  0  0  0  0  0
   -3.5943    1.3389  -23.0156 H   0  0  0  0  0  0  0  0  0  0  0  0
   -2.3583    2.2777  -21.0861 H   0  0  0  0  0  0  0  0  0  0  0  0
   -3.0816    1.7476  -18.7714 H   0  0  0  0  0  0  0  0  0  0  0  0
   -4.5082    0.3304  -17.2190 H   0  0  0  0  0  0  0  0  0  0  0  0
   -7.7994   -1.6786  -18.6293 H   0  0  0  0  0  0  0  0  0  0  0  0
   -7.2363   -2.6589  -21.7933 C   0  0  0  0  0  0  0  0  0  0  0  0
   -8.4099   -2.8060  -22.7857 C   0  0  2  0  0  0  0  0  0  0  0  0
   -8.0444   -3.6966  -23.9808 C   0  0  0  0  0  0  0  0  0  0  0  0
   -7.1700   -3.3040  -24.5160 H   0  0  0  0  0  0  0  0  0  0  0  0
   -8.8668   -3.7744  -24.7007 H   0  0  0  0  0  0  0  0  0  0  0  0
   -7.7940   -4.7115  -23.6486 H   0  0  0  0  0  0  0  0  0  0  0  0
   -9.2365   -3.2780  -22.2489 H   0  0  0  0  0  0  0  0  0  0  0  0
   -6.2660   -2.7182  -22.3137 H   0  0  0  0  0  0  0  0  0  0  0  0
   -7.2313   -3.4313  -21.0140 H   0  0  0  0  0  0  0  0  0  0  0  0
  -10.3816   -1.1275  -23.1678 C   0  0  0  0  0  0  0  0  0  0  0  0
  -11.2327   -1.8024  -22.2834 C   0  0  0  0  0  0  0  0  0  0  0  0
  -12.5920   -1.5809  -22.3500 C   0  0  0  0  0  0  0  0  0  0  0  0
  -13.4024   -2.2521  -21.5157 F   0  0  0  0  0  0  0  0  0  0  0  0
  -13.1609   -0.6836  -23.2457 C   0  0  0  0  0  0  0  0  0  0  0  0
  -12.3191    0.0417  -24.0641 C   0  0  0  0  0  0  0  0  0  0  0  0
  -10.9378   -0.1476  -24.0071 C   0  0  0  0  0  0  0  0  0  0  0  0
  -10.0622    0.7866  -24.7861 C   0  0  0  0  0  0  0  0  0  0  0  0
  -10.4992    1.7284  -25.4360 O   0  0  0  0  0  0  0  0  0  0  0  0
  -12.7003    0.7970  -24.7419 H   0  0  0  0  0  0  0  0  0  0  0  0
  -14.2355   -0.5501  -23.2535 H   0  0  0  0  0  0  0  0  0  0  0  0
  -10.8656   -2.4755  -21.5157 H   0  0  0  0  0  0  0  0  0  0  0  0
   -7.1662   -0.7701  -24.3266 H   0  0  0  0  0  0  0  0  0  0  0  0
   -8.5233   -1.4736  -25.2477 H   0  0  0  0  0  0  0  0  0  0  0  0
   -6.8713    1.4206  -24.5059 H   0  0  0  0  0  0  0  0  0  0  0  0
   -8.2181    2.5139  -24.9426 H   0  0  0  0  0  0  0  0  0  0  0  0
   -7.9796    2.1852  -27.5572 C   0  0  0  0  0  0  0  0  0  0  0  0
   -7.6520    2.0981  -28.8491 N   0  0  0  0  0  0  0  0  0  0  0  0
   -8.7610    2.8943  -27.2947 H   0  0  0  0  0  0  0  0  0  0  0  0
   -5.2801   -0.2240  -28.4438 H   0  0  0  0  0  0  0  0  0  0  0  0
   -6.5027    0.0410  -30.9668 H   0  0  0  0  0  0  0  0  0  0  0  0
   -6.9309    1.7552  -31.2380 H   0  0  0  0  0  0  0  0  0  0  0  0
   -5.2646    1.2914  -30.7832 H   0  0  0  0  0  0  0  0  0  0  0  0
  1  2  1  0
  2  3  2  0
  3  4  1  0
  4  5  2  0
  5  6  1  0
  6  7  1  0
  7  8  1  0
  9  8  1  6
  9 10  1  0
 10 11  2  0
 10 12  1  0
 12 13  1  0
 13 14  2  0
 14 15  1  0
 15 16  2  0
 16 17  1  0
 17 18  2  0
 18 19  1  0
 19 20  2  0
 20 21  1  0
 21 22  2  0
 21 23  1  0
 20 24  1  0
 19 25  1  0
 18 26  1  0
 16 27  1  0
 14 28  1  0
 12 29  1  0
 29 30  1  0
 30 31  1  0
 31 32  1  0
 31 33  1  0
 31 34  1  0
 30 35  1  1
 29 36  1  0
 29 37  1  0
  9 38  1  0
 38 39  2  0
 39 40  1  0
 40 41  1  0
 40 42  2  0
 42 43  1  0
 43 44  2  0
 44 45  1  0
 45 46  2  0
 43 47  1  0
 42 48  1  0
 39 49  1  0
  8 50  1  0
  8 51  1  0
  6 52  1  0
  6 53  1  0
  5 54  1  0
 54 55  2  0
 54 56  1  0
  3 57  1  0
  1 58  1  0
  1 59  1  0
  1 60  1  0
 55  2  1  0
 45  7  1  0
 30  9  1  0
 44 38  1  0
 22 13  1  0
 22 17  1  0
M  END
>  <cnnaffinities>  (3) 
[6.20263, 6.10188]

>  <score>  (3) 
6.20263

>  <index>  (3) 
2

>  <Smiles>  (3) 
C(c1c(nc(C(N2C([C@@]3(C(=O)N(c4c(nc(c5c(c(c(c(c45)[H])[H])[H])[H])[H])[H])C([C@@]3(C([H])([H])[H])[H])([H])[H])c3c(c(F)c(c(c3C2=O)[H])[H])[H])([H])[H])([H])[H])c(n1)[H])[H])([H])([H])[H]

>  <h>  (3) 
<NA>

>  <Training>  (3) 
True

>  <Success>  (3) 
True

>  <enamine_searched>  (3) 
False

>  <enamine_id>  (3) 
nan

$$$$

     RDKit          3D

 66 70  0  0  0  0  0  0  0  0999 V2000
   -7.4512    3.3790  -21.7814 C   0  0  0  0  0  0  0  0  0  0  0  0
   -8.3437    2.9111  -22.8247 N   0  0  0  0  0  0  0  0  0  0  0  0
   -7.8021    2.2165  -23.8622 C   0  0  0  0  0  0  0  0  0  0  0  0
   -6.5957    2.0775  -23.9992 O   0  0  0  0  0  0  0  0  0  0  0  0
   -8.7969    1.6263  -24.8550 C   0  0  0  0  0  0  0  0  0  0  0  0
   -9.4641    0.4581  -24.3284 N   0  0  0  0  0  0  0  0  0  0  0  0
   -8.6981   -0.7615  -24.1677 C   0  0  0  0  0  0  0  0  0  0  0  0
   -9.0774   -1.5159  -22.8752 C   0  0  2  0  0  0  0  0  0  0  0  0
   -8.5619   -0.7523  -21.6393 C   0  0  0  0  0  0  0  0  0  0  0  0
   -9.0539    0.2228  -21.1122 O   0  0  0  0  0  0  0  0  0  0  0  0
   -7.4095   -1.3644  -21.2233 N   0  0  0  0  0  0  0  0  0  0  0  0
   -6.6154   -0.8288  -20.1934 C   0  0  0  0  0  0  0  0  0  0  0  0
   -6.9310   -1.1133  -18.8924 C   0  0  0  0  0  0  0  0  0  0  0  0
   -6.1584   -0.7725  -17.8395 N   0  0  0  0  0  0  0  0  0  0  0  0
   -5.0892   -0.0528  -18.0921 C   0  0  0  0  0  0  0  0  0  0  0  0
   -4.7139    0.4032  -19.3907 C   0  0  0  0  0  0  0  0  0  0  0  0
   -3.6183    1.2793  -19.6125 C   0  0  0  0  0  0  0  0  0  0  0  0
   -3.2543    1.6279  -20.8849 C   0  0  0  0  0  0  0  0  0  0  0  0
   -3.9754    1.1390  -21.9977 C   0  0  0  0  0  0  0  0  0  0  0  0
   -5.0702    0.3312  -21.8086 C   0  0  0  0  0  0  0  0  0  0  0  0
   -5.4722   -0.0367  -20.4951 C   0  0  0  0  0  0  0  0  0  0  0  0
   -5.6328   -0.0151  -22.6703 H   0  0  0  0  0  0  0  0  0  0  0  0
   -3.6662    1.4004  -23.0040 H   0  0  0  0  0  0  0  0  0  0  0  0
   -2.4025    2.2804  -21.0529 H   0  0  0  0  0  0  0  0  0  0  0  0
   -3.0934    1.6839  -18.7526 H   0  0  0  0  0  0  0  0  0  0  0  0
   -4.4512    0.2044  -17.2493 H   0  0  0  0  0  0  0  0  0  0  0  0
   -7.8564   -1.6434  -18.6785 H   0  0  0  0  0  0  0  0  0  0  0  0
   -7.0484   -2.5529  -21.9584 C   0  0  0  0  0  0  0  0  0  0  0  0
   -8.3130   -2.8664  -22.7680 C   0  0  2  0  0  0  0  0  0  0  0  0
   -7.9828   -3.6015  -24.0695 C   0  0  0  0  0  0  0  0  0  0  0  0
   -9.1362   -3.9137  -24.8167 O   0  0  0  0  0  0  0  0  0  0  0  0
   -9.6986   -5.1993  -24.5626 C   0  0  0  0  0  0  0  0  0  0  0  0
  -11.1948   -5.0511  -24.7500 C   0  0  0  0  0  0  0  0  0  0  0  0
  -11.7128   -6.0005  -24.5703 H   0  0  0  0  0  0  0  0  0  0  0  0
  -11.5944   -4.2922  -24.0709 H   0  0  0  0  0  0  0  0  0  0  0  0
  -11.3936   -4.7251  -25.7741 H   0  0  0  0  0  0  0  0  0  0  0  0
   -9.0987   -6.2389  -25.5036 C   0  0  0  0  0  0  0  0  0  0  0  0
   -9.5531   -7.2223  -25.3367 H   0  0  0  0  0  0  0  0  0  0  0  0
   -8.0183   -6.3365  -25.3576 H   0  0  0  0  0  0  0  0  0  0  0  0
   -9.2784   -5.9441  -26.5418 H   0  0  0  0  0  0  0  0  0  0  0  0
   -9.4894   -5.4939  -23.5221 H   0  0  0  0  0  0  0  0  0  0  0  0
   -7.4018   -4.5129  -23.8490 H   0  0  0  0  0  0  0  0  0  0  0  0
   -7.3543   -2.9662  -24.7063 H   0  0  0  0  0  0  0  0  0  0  0  0
   -8.9490   -3.5300  -22.1786 H   0  0  0  0  0  0  0  0  0  0  0  0
   -6.1795   -2.3737  -22.6109 H   0  0  0  0  0  0  0  0  0  0  0  0
   -6.7789   -3.3562  -21.2666 H   0  0  0  0  0  0  0  0  0  0  0  0
  -10.5835   -1.6171  -22.8225 C   0  0  0  0  0  0  0  0  0  0  0  0
  -11.1974   -2.5268  -21.9543 C   0  0  0  0  0  0  0  0  0  0  0  0
  -12.5768   -2.5484  -21.8477 C   0  0  0  0  0  0  0  0  0  0  0  0
  -13.3248   -3.6127  -20.6900 Cl  0  0  0  0  0  0  0  0  0  0  0  0
  -13.3934   -1.7116  -22.6110 C   0  0  0  0  0  0  0  0  0  0  0  0
  -12.7895   -0.7781  -23.4281 C   0  0  0  0  0  0  0  0  0  0  0  0
  -11.4018   -0.7038  -23.4997 C   0  0  0  0  0  0  0  0  0  0  0  0
  -10.8270    0.4564  -24.2463 C   0  0  0  0  0  0  0  0  0  0  0  0
  -11.5234    1.3469  -24.7098 O   0  0  0  0  0  0  0  0  0  0  0  0
  -13.3618   -0.0537  -23.9958 H   0  0  0  0  0  0  0  0  0  0  0  0
  -14.4724   -1.7818  -22.5151 H   0  0  0  0  0  0  0  0  0  0  0  0
  -10.6024   -3.1906  -21.3333 H   0  0  0  0  0  0  0  0  0  0  0  0
   -8.8880   -1.4329  -25.0129 H   0  0  0  0  0  0  0  0  0  0  0  0
   -7.6366   -0.4995  -24.1604 H   0  0  0  0  0  0  0  0  0  0  0  0
   -9.5847    2.3428  -25.1017 H   0  0  0  0  0  0  0  0  0  0  0  0
   -8.2298    1.3725  -25.7516 H   0  0  0  0  0  0  0  0  0  0  0  0
   -9.3006    2.7158  -22.5554 H   0  0  0  0  0  0  0  0  0  0  0  0
   -6.9758    2.5449  -21.2432 H   0  0  0  0  0  0  0  0  0  0  0  0
   -6.6526    3.9641  -22.2364 H   0  0  0  0  0  0  0  0  0  0  0  0
   -7.9802    4.0333  -21.0876 H   0  0  0  0  0  0  0  0  0  0  0  0
  1  2  1  0
  2  3  1  0
  3  4  2  0
  3  5  1  0
  5  6  1  0
  6  7  1  0
  8  7  1  6
  8  9  1  0
  9 10  2  0
  9 11  1  0
 11 12  1  0
 12 13  2  0
 13 14  1  0
 14 15  2  0
 15 16  1  0
 16 17  2  0
 17 18  1  0
 18 19  2  0
 19 20  1  0
 20 21  2  0
 20 22  1  0
 19 23  1  0
 18 24  1  0
 17 25  1  0
 15 26  1  0
 13 27  1  0
 11 28  1  0
 28 29  1  0
 29 30  1  0
 30 31  1  0
 31 32  1  0
 32 33  1  0
 33 34  1  0
 33 35  1  0
 33 36  1  0
 32 37  1  0
 37 38  1  0
 37 39  1  0
 37 40  1  0
 32 41  1  0
 30 42  1  0
 30 43  1  0
 29 44  1  1
 28 45  1  0
 28 46  1  0
  8 47  1  0
 47 48  2  0
 48 49  1  0
 49 50  1  0
 49 51  2  0
 51 52  1  0
 52 53  2  0
 53 54  1  0
 54 55  2  0
 52 56  1  0
 51 57  1  0
 48 58  1  0
  7 59  1  0
  7 60  1  0
  5 61  1  0
  5 62  1  0
  2 63  1  0
  1 64  1  0
  1 65  1  0
  1 66  1  0
 54  6  1  0
 29  8  1  0
 53 47  1  0
 21 12  1  0
 21 16  1  0
M  END
>  <cnnaffinities>  (4) 
[6.41922]

>  <score>  (4) 
6.41922

>  <index>  (4) 
3

>  <Smiles>  (4) 
C(N(C(=O)C(N1C([C@@]2(C(=O)N(c3c(nc(c4c(c(c(c(c34)[H])[H])[H])[H])[H])[H])C([C@@]2(C(OC(C([H])([H])[H])(C([H])([H])[H])[H])([H])[H])[H])([H])[H])c2c(c(Cl)c(c(c2C1=O)[H])[H])[H])([H])[H])([H])[H])[H])([H])([H])[H]

>  <h>  (4) 
<NA>

>  <Training>  (4) 
True

>  <Success>  (4) 
True

>  <enamine_searched>  (4) 
False

>  <enamine_id>  (4) 
nan

$$$$

     RDKit          3D

 59 64  0  0  0  0  0  0  0  0999 V2000
   -7.5283   -3.3871  -23.9115 C   0  0  0  0  0  0  0  0  0  0  0  0
   -8.4170   -2.9303  -22.7461 C   0  0  1  0  0  0  0  0  0  0  0  0
   -7.5772   -2.7854  -21.4632 C   0  0  0  0  0  0  0  0  0  0  0  0
   -7.4319   -1.3571  -21.2920 N   0  0  0  0  0  0  0  0  0  0  0  0
   -6.6359   -0.8381  -20.2375 C   0  0  0  0  0  0  0  0  0  0  0  0
   -6.9274   -1.1495  -18.9325 C   0  0  0  0  0  0  0  0  0  0  0  0
   -6.1861   -0.7703  -17.8647 N   0  0  0  0  0  0  0  0  0  0  0  0
   -5.1258   -0.0350  -18.0981 C   0  0  0  0  0  0  0  0  0  0  0  0
   -4.7172    0.3830  -19.3971 C   0  0  0  0  0  0  0  0  0  0  0  0
   -3.5948    1.2317  -19.5947 C   0  0  0  0  0  0  0  0  0  0  0  0
   -3.1857    1.5485  -20.8594 C   0  0  0  0  0  0  0  0  0  0  0  0
   -3.8708    1.0305  -21.9808 C   0  0  0  0  0  0  0  0  0  0  0  0
   -4.9820    0.2398  -21.8164 C   0  0  0  0  0  0  0  0  0  0  0  0
   -5.4572   -0.0704  -20.5134 C   0  0  0  0  0  0  0  0  0  0  0  0
   -5.5044   -0.1660  -22.6766 H   0  0  0  0  0  0  0  0  0  0  0  0
   -3.5078    1.2621  -22.9787 H   0  0  0  0  0  0  0  0  0  0  0  0
   -2.3252    2.1926  -21.0148 H   0  0  0  0  0  0  0  0  0  0  0  0
   -3.0815    1.6201  -18.7188 H   0  0  0  0  0  0  0  0  0  0  0  0
   -4.5207    0.2541  -17.2384 H   0  0  0  0  0  0  0  0  0  0  0  0
   -7.8151   -1.7327  -18.6894 H   0  0  0  0  0  0  0  0  0  0  0  0
   -8.4095   -0.6247  -21.9389 C   0  0  0  0  0  0  0  0  0  0  0  0
   -8.6277    0.5516  -21.7638 O   0  0  0  0  0  0  0  0  0  0  0  0
   -9.1730   -1.5687  -22.9061 C   0  0  1  0  0  0  0  0  0  0  0  0
   -9.0907   -1.0195  -24.3516 C   0  0  0  0  0  0  0  0  0  0  0  0
   -9.8709    0.1971  -24.5339 N   0  0  0  0  0  0  0  0  0  0  0  0
   -9.3215    1.2542  -25.3755 C   0  0  0  0  0  0  0  0  0  0  0  0
   -8.2658    2.0555  -24.6550 C   0  0  0  0  0  0  0  0  0  0  0  0
   -6.9706    1.8921  -24.8381 N   0  0  0  0  0  0  0  0  0  0  0  0
   -6.3701    2.8262  -24.0315 C   0  0  0  0  0  0  0  0  0  0  0  0
   -7.3099    3.5351  -23.3397 C   0  0  0  0  0  0  0  0  0  0  0  0
   -8.5305    3.0372  -23.7446 N   0  0  0  0  0  0  0  0  0  0  0  0
   -9.8279    3.4611  -23.2407 C   0  0  0  0  0  0  0  0  0  0  0  0
  -10.5382    3.5937  -24.0612 H   0  0  0  0  0  0  0  0  0  0  0  0
  -10.2255    2.7391  -22.5200 H   0  0  0  0  0  0  0  0  0  0  0  0
   -9.7068    4.4224  -22.7353 H   0  0  0  0  0  0  0  0  0  0  0  0
   -7.2387    4.3164  -22.5952 H   0  0  0  0  0  0  0  0  0  0  0  0
   -5.2946    2.9317  -24.0083 H   0  0  0  0  0  0  0  0  0  0  0  0
  -10.1521    1.8866  -25.7117 H   0  0  0  0  0  0  0  0  0  0  0  0
   -8.8370    0.8270  -26.2654 H   0  0  0  0  0  0  0  0  0  0  0  0
  -11.1423    0.3348  -24.0479 C   0  0  0  0  0  0  0  0  0  0  0  0
  -11.9060    1.2116  -24.4315 O   0  0  0  0  0  0  0  0  0  0  0  0
  -11.5501   -0.6620  -23.0049 C   0  0  0  0  0  0  0  0  0  0  0  0
  -12.8880   -0.6485  -22.5992 C   0  0  0  0  0  0  0  0  0  0  0  0
  -13.3794   -1.6486  -21.7834 C   0  0  0  0  0  0  0  0  0  0  0  0
  -12.4996   -2.6362  -21.3592 C   0  0  0  0  0  0  0  0  0  0  0  0
  -12.9732   -3.5944  -20.5427 F   0  0  0  0  0  0  0  0  0  0  0  0
  -11.1595   -2.6426  -21.6912 C   0  0  0  0  0  0  0  0  0  0  0  0
  -10.6561   -1.6336  -22.5279 C   0  0  0  0  0  0  0  0  0  0  0  0
  -10.5352   -3.4325  -21.2797 H   0  0  0  0  0  0  0  0  0  0  0  0
  -14.4137   -1.7041  -21.4599 H   0  0  0  0  0  0  0  0  0  0  0  0
  -13.5304    0.1459  -22.9570 H   0  0  0  0  0  0  0  0  0  0  0  0
   -9.4578   -1.7999  -25.0340 H   0  0  0  0  0  0  0  0  0  0  0  0
   -8.0571   -0.7761  -24.6174 H   0  0  0  0  0  0  0  0  0  0  0  0
   -6.5853   -3.2496  -21.5403 H   0  0  0  0  0  0  0  0  0  0  0  0
   -8.0778   -3.2300  -20.5934 H   0  0  0  0  0  0  0  0  0  0  0  0
   -9.1420   -3.7315  -22.6144 H   0  0  0  0  0  0  0  0  0  0  0  0
   -6.7224   -2.6733  -24.1084 H   0  0  0  0  0  0  0  0  0  0  0  0
   -8.1037   -3.5191  -24.8305 H   0  0  0  0  0  0  0  0  0  0  0  0
   -7.0710   -4.3592  -23.6818 H   0  0  0  0  0  0  0  0  0  0  0  0
  1  2  1  0
  2  3  1  0
  3  4  1  0
  4  5  1  0
  5  6  2  0
  6  7  1  0
  7  8  2  0
  8  9  1  0
  9 10  2  0
 10 11  1  0
 11 12  2  0
 12 13  1  0
 13 14  2  0
 13 15  1  0
 12 16  1  0
 11 17  1  0
 10 18  1  0
  8 19  1  0
  6 20  1  0
  4 21  1  0
 21 22  2  0
 21 23  1  0
 23 24  1  6
 24 25  1  0
 25 26  1  0
 26 27  1  0
 27 28  2  0
 28 29  1  0
 29 30  2  0
 30 31  1  0
 31 32  1  0
 32 33  1  0
 32 34  1  0
 32 35  1  0
 30 36  1  0
 29 37  1  0
 26 38  1  0
 26 39  1  0
 25 40  1  0
 40 41  2  0
 40 42  1  0
 42 43  2  0
 43 44  1  0
 44 45  2  0
 45 46  1  0
 45 47  1  0
 47 48  2  0
 47 49  1  0
 44 50  1  0
 43 51  1  0
 24 52  1  0
 24 53  1  0
  3 54  1  0
  3 55  1  0
  2 56  1  1
  1 57  1  0
  1 58  1  0
  1 59  1  0
 23  2  1  0
 31 27  1  0
 48 42  1  0
 14  5  1  0
 48 23  1  0
 14  9  1  0
M  END
>  <cnnaffinities>  (5) 
[6.42119, 6.10047]

>  <score>  (5) 
6.42119

>  <index>  (5) 
4

>  <Smiles>  (5) 
C([C@]1(C(N(c2c(nc(c3c(c(c(c(c23)[H])[H])[H])[H])[H])[H])C(=O)[C@]21C(N(C(c1nc(c(n1C([H])([H])[H])[H])[H])([H])[H])C(=O)c1c(c(c(F)c(c21)[H])[H])[H])([H])[H])([H])[H])[H])([H])([H])[H]

>  <h>  (5) 
<NA>

>  <Training>  (5) 
True

>  <Success>  (5) 
True

>  <enamine_searched>  (5) 
False

>  <enamine_id>  (5) 
nan

$$$$

     RDKit          3D

 58 61  0  0  0  0  0  0  0  0999 V2000
   -8.4692   -3.7179  -21.8281 C   0  0  0  0  0  0  0  0  0  0  0  0
   -8.1580   -3.8499  -22.0797 C   0  0  0  0  0  0  0  0  0  0  0  0
   -6.9030   -3.0154  -21.6757 C   0  0  0  0  0  0  0  0  0  0  0  0
   -7.0180   -1.5438  -21.3951 N   0  0  0  0  0  0  0  0  0  0  0  0
   -8.1948   -0.7539  -21.5426 C   0  0  0  0  0  0  0  0  0  0  0  0
   -8.6319   -0.1151  -20.6015 O   0  0  0  0  0  0  0  0  0  0  0  0
   -8.7906   -0.6113  -22.9202 C   0  0  2  0  0  0  0  0  0  0  0  0
   -8.8353    0.8475  -23.4186 C   0  0  0  0  0  0  0  0  0  0  0  0
   -9.1734    0.8168  -24.8287 N   0  0  0  0  0  0  0  0  0  0  0  0
   -8.2280    1.3871  -25.7833 C   0  0  0  0  0  0  0  0  0  0  0  0
   -6.9830    0.4904  -25.8544 C   0  0  0  0  0  0  0  0  0  0  0  0
   -6.0265    0.6693  -25.1128 O   0  0  0  0  0  0  0  0  0  0  0  0
   -7.0557   -0.5506  -26.7258 N   0  0  0  0  0  0  0  0  0  0  0  0
   -5.9846   -1.5237  -26.8264 C   0  0  0  0  0  0  0  0  0  0  0  0
   -6.3203   -2.5284  -26.5461 H   0  0  0  0  0  0  0  0  0  0  0  0
   -5.5675   -1.5472  -27.8381 H   0  0  0  0  0  0  0  0  0  0  0  0
   -5.2032   -1.2115  -26.1309 H   0  0  0  0  0  0  0  0  0  0  0  0
   -7.8935   -0.6712  -27.2781 H   0  0  0  0  0  0  0  0  0  0  0  0
   -8.7346    1.4654  -26.7470 H   0  0  0  0  0  0  0  0  0  0  0  0
   -7.9133    2.3791  -25.4465 H   0  0  0  0  0  0  0  0  0  0  0  0
  -10.0876   -0.0718  -25.3329 C   0  0  0  0  0  0  0  0  0  0  0  0
  -10.3730   -0.0625  -26.5188 O   0  0  0  0  0  0  0  0  0  0  0  0
  -10.7001   -1.0477  -24.3747 C   0  0  0  0  0  0  0  0  0  0  0  0
  -11.8713   -1.7017  -24.7464 C   0  0  0  0  0  0  0  0  0  0  0  0
  -12.5768   -2.4416  -23.8115 C   0  0  0  0  0  0  0  0  0  0  0  0
  -12.1117   -2.4549  -22.4923 C   0  0  0  0  0  0  0  0  0  0  0  0
  -13.0434   -3.3023  -21.2874 Cl  0  0  0  0  0  0  0  0  0  0  0  0
  -10.9522   -1.7830  -22.1164 C   0  0  0  0  0  0  0  0  0  0  0  0
  -10.1527   -1.2150  -23.1048 C   0  0  0  0  0  0  0  0  0  0  0  0
  -10.7210   -1.6446  -21.0628 H   0  0  0  0  0  0  0  0  0  0  0  0
  -13.4783   -2.9808  -24.0846 H   0  0  0  0  0  0  0  0  0  0  0  0
  -12.2211   -1.6019  -25.7669 H   0  0  0  0  0  0  0  0  0  0  0  0
   -7.8497    1.3138  -23.3294 H   0  0  0  0  0  0  0  0  0  0  0  0
   -9.5564    1.4234  -22.8305 H   0  0  0  0  0  0  0  0  0  0  0  0
   -8.1093   -1.1120  -23.6082 H   0  0  0  0  0  0  0  0  0  0  0  0
   -6.2304   -1.1195  -20.2956 C   0  0  0  0  0  0  0  0  0  0  0  0
   -6.5519   -1.5519  -19.0360 C   0  0  0  0  0  0  0  0  0  0  0  0
   -5.9005   -1.1796  -17.9092 N   0  0  0  0  0  0  0  0  0  0  0  0
   -4.8916   -0.3501  -18.0483 C   0  0  0  0  0  0  0  0  0  0  0  0
   -4.4462    0.1710  -19.2987 C   0  0  0  0  0  0  0  0  0  0  0  0
   -3.3473    1.0677  -19.3888 C   0  0  0  0  0  0  0  0  0  0  0  0
   -2.9900    1.6025  -20.5942 C   0  0  0  0  0  0  0  0  0  0  0  0
   -3.7050    1.2642  -21.7655 C   0  0  0  0  0  0  0  0  0  0  0  0
   -4.7562    0.3823  -21.7146 C   0  0  0  0  0  0  0  0  0  0  0  0
   -5.1472   -0.1972  -20.4707 C   0  0  0  0  0  0  0  0  0  0  0  0
   -5.2874    0.1485  -22.6351 H   0  0  0  0  0  0  0  0  0  0  0  0
   -3.4181    1.7114  -22.7125 H   0  0  0  0  0  0  0  0  0  0  0  0
   -2.1575    2.2990  -20.6602 H   0  0  0  0  0  0  0  0  0  0  0  0
   -2.8175    1.3340  -18.4782 H   0  0  0  0  0  0  0  0  0  0  0  0
   -4.3808   -0.0487  -17.1360 H   0  0  0  0  0  0  0  0  0  0  0  0
   -7.4131   -2.2020  -18.8770 H   0  0  0  0  0  0  0  0  0  0  0  0
   -6.6428   -3.5216  -20.7759 H   0  0  0  0  0  0  0  0  0  0  0  0
   -6.1546   -3.1584  -22.4309 H   0  0  0  0  0  0  0  0  0  0  0  0
   -8.5333   -3.5358  -23.5444 C   0  0  0  0  0  0  0  0  0  0  0  0
   -9.4275   -4.0508  -24.1855 O   0  0  0  0  0  0  0  0  0  0  0  0
   -7.5641   -2.8876  -23.9181 O   0  0  0  0  0  1  0  0  0  0  0  0
   -9.6028   -4.0080  -21.6814 H   0  0  0  0  0  0  0  0  0  0  0  0
   -8.9888   -2.9550  -21.2567 H   0  0  0  0  0  0  0  0  0  0  0  0
  1  2  2  0
  2  3  1  0
  3  4  1  0
  4  5  1  0
  5  6  2  0
  5  7  1  0
  7  8  1  0
  8  9  1  0
  9 10  1  0
 10 11  1  0
 11 12  2  0
 11 13  1  0
 13 14  1  0
 14 15  1  0
 14 16  1  0
 14 17  1  0
 13 18  1  0
 10 19  1  0
 10 20  1  0
  9 21  1  0
 21 22  2  0
 21 23  1  0
 23 24  2  0
 24 25  1  0
 25 26  2  0
 26 27  1  0
 26 28  1  0
 28 29  2  0
 28 30  1  0
 25 31  1  0
 24 32  1  0
  8 33  1  0
  8 34  1  0
  7 35  1  6
  4 36  1  0
 36 37  2  0
 37 38  1  0
 38 39  2  0
 39 40  1  0
 40 41  2  0
 41 42  1  0
 42 43  2  0
 43 44  1  0
 44 45  2  0
 44 46  1  0
 43 47  1  0
 42 48  1  0
 41 49  1  0
 39 50  1  0
 37 51  1  0
  3 52  1  0
  3 53  1  0
  2 54  1  0
 54 55  2  0
 54 56  1  0
  1 57  1  0
  1 58  1  0
 29  7  1  0
 45 36  1  0
 29 23  1  0
 45 40  1  0
M  CHG  1  56  -1
M  END
>  <cnnaffinities>  (6) 
[5.57576]

>  <score>  (6) 
5.57576

>  <index>  (6) 
5

>  <Smiles>  (6) 
C(=C(C(N(C(=O)[C@@]1(C(N(C(C(=O)N(C([H])([H])[H])[H])([H])[H])C(=O)c2c(c(c(Cl)c(c12)[H])[H])[H])([H])[H])[H])c1c(nc(c2c(c(c(c(c12)[H])[H])[H])[H])[H])[H])([H])[H])C(=O)[O-])([H])[H]

>  <h>  (6) 
<NA>

>  <Training>  (6) 
True

>  <Success>  (6) 
True

>  <enamine_searched>  (6) 
False

>  <enamine_id>  (6) 
nan

$$$$

     RDKit          3D

 43 45  0  0  0  0  0  0  0  0999 V2000
  -13.1972   -3.1667  -24.9644 C   0  0  0  0  0  0  0  0  0  0  0  0
  -11.6682   -3.2008  -24.8935 C   0  0  0  0  0  0  0  0  0  0  0  0
  -11.0171   -1.8139  -25.0580 C   0  0  0  0  0  0  0  0  0  0  0  0
  -11.3920   -0.8558  -23.9007 C   0  0  0  0  0  0  0  0  0  0  0  0
  -10.2250    0.0412  -23.4774 C   0  0  0  0  0  0  0  0  0  0  0  0
   -9.0917   -0.7773  -23.0561 N   0  0  0  0  0  0  0  0  0  0  0  0
   -8.4219   -0.4001  -21.9265 C   0  0  0  0  0  0  0  0  0  0  0  0
   -8.6285    0.6760  -21.3811 O   0  0  0  0  0  0  0  0  0  0  0  0
   -7.4456   -1.4119  -21.3155 C   0  0  0  0  0  0  0  0  0  0  0  0
   -6.6061   -0.8265  -20.2161 C   0  0  0  0  0  0  0  0  0  0  0  0
   -6.9202   -1.0755  -18.9063 C   0  0  0  0  0  0  0  0  0  0  0  0
   -6.1759   -0.6936  -17.8358 N   0  0  0  0  0  0  0  0  0  0  0  0
   -5.1018    0.0184  -18.0794 C   0  0  0  0  0  0  0  0  0  0  0  0
   -4.7094    0.4522  -19.3825 C   0  0  0  0  0  0  0  0  0  0  0  0
   -3.6073    1.3218  -19.6103 C   0  0  0  0  0  0  0  0  0  0  0  0
   -3.2297    1.6451  -20.8872 C   0  0  0  0  0  0  0  0  0  0  0  0
   -3.9415    1.1306  -21.9929 C   0  0  0  0  0  0  0  0  0  0  0  0
   -5.0356    0.3267  -21.7965 C   0  0  0  0  0  0  0  0  0  0  0  0
   -5.4635   -0.0155  -20.4850 C   0  0  0  0  0  0  0  0  0  0  0  0
   -5.5813   -0.0625  -22.6490 H   0  0  0  0  0  0  0  0  0  0  0  0
   -3.6145    1.3701  -23.0015 H   0  0  0  0  0  0  0  0  0  0  0  0
   -2.3705    2.2850  -21.0620 H   0  0  0  0  0  0  0  0  0  0  0  0
   -3.0867    1.7346  -18.7485 H   0  0  0  0  0  0  0  0  0  0  0  0
   -4.4811    0.2767  -17.2162 H   0  0  0  0  0  0  0  0  0  0  0  0
   -7.8055   -1.6632  -18.6526 H   0  0  0  0  0  0  0  0  0  0  0  0
   -6.8203   -1.8900  -22.0798 H   0  0  0  0  0  0  0  0  0  0  0  0
   -8.0522   -2.2152  -20.8759 H   0  0  0  0  0  0  0  0  0  0  0  0
   -8.7323   -1.9329  -23.8724 C   0  0  0  0  0  0  0  0  0  0  0  0
   -9.4851   -1.9046  -25.2060 C   0  0  0  0  0  0  0  0  0  0  0  0
   -9.2297   -2.8135  -25.7642 H   0  0  0  0  0  0  0  0  0  0  0  0
   -9.1284   -1.0463  -25.7961 H   0  0  0  0  0  0  0  0  0  0  0  0
   -7.6563   -1.9061  -24.0945 H   0  0  0  0  0  0  0  0  0  0  0  0
   -8.9380   -2.8746  -23.3364 H   0  0  0  0  0  0  0  0  0  0  0  0
  -10.4839    0.6674  -22.6218 H   0  0  0  0  0  0  0  0  0  0  0  0
   -9.9185    0.7088  -24.2989 H   0  0  0  0  0  0  0  0  0  0  0  0
  -11.7054   -1.4520  -23.0283 H   0  0  0  0  0  0  0  0  0  0  0  0
  -12.2442   -0.2275  -24.1951 H   0  0  0  0  0  0  0  0  0  0  0  0
  -11.4000   -1.3852  -25.9947 H   0  0  0  0  0  0  0  0  0  0  0  0
  -11.2785   -3.8583  -25.6834 H   0  0  0  0  0  0  0  0  0  0  0  0
  -11.3297   -3.6389  -23.9405 H   0  0  0  0  0  0  0  0  0  0  0  0
  -13.6304   -2.5686  -24.1550 H   0  0  0  0  0  0  0  0  0  0  0  0
  -13.6229   -4.1723  -24.8931 H   0  0  0  0  0  0  0  0  0  0  0  0
  -13.5392   -2.7306  -25.9115 H   0  0  0  0  0  0  0  0  0  0  0  0
  1  2  1  0
  2  3  1  0
  3  4  1  0
  4  5  1  0
  5  6  1  0
  6  7  1  0
  7  8  2  0
  7  9  1  0
  9 10  1  0
 10 11  2  0
 11 12  1  0
 12 13  2  0
 13 14  1  0
 14 15  2  0
 15 16  1  0
 16 17  2  0
 17 18  1  0
 18 19  2  0
 18 20  1  0
 17 21  1  0
 16 22  1  0
 15 23  1  0
 13 24  1  0
 11 25  1  0
  9 26  1  0
  9 27  1  0
  6 28  1  0
 28 29  1  0
 29 30  1  0
 29 31  1  0
 28 32  1  0
 28 33  1  0
  5 34  1  0
  5 35  1  0
  4 36  1  0
  4 37  1  0
  3 38  1  0
  2 39  1  0
  2 40  1  0
  1 41  1  0
  1 42  1  0
  1 43  1  0
 29  3  1  0
 19 10  1  0
 19 14  1  0
M  END
>  <cnnaffinities>  (7) 
[4.97223, 5.21597, 4.75569, 4.75814, 4.75795, 4.56298, 4.72658, 4.72753, 4.82655, 4.87311, 4.87313]

>  <score>  (7) 
4.97223

>  <index>  (7) 
6

>  <Smiles>  (7) 
C(C(C1(C(C(N(C(=O)C(c2c(nc(c3c(c(c(c(c23)[H])[H])[H])[H])[H])[H])([H])[H])C(C1([H])[H])([H])[H])([H])[H])([H])[H])[H])([H])[H])([H])([H])[H]

>  <h>  (7) 
<NA>

>  <Training>  (7) 
True

>  <Success>  (7) 
True

>  <enamine_searched>  (7) 
False

>  <enamine_id>  (7) 
nan

$$$$

     RDKit          3D

 44 47  0  0  0  0  0  0  0  0999 V2000
   -9.6929   -6.0166  -25.9626 C   0  0  0  0  0  0  0  0  0  0  0  0
  -10.9968   -6.0650  -25.1891 C   0  0  0  0  0  0  0  0  0  0  0  0
  -11.2601   -4.5681  -24.2282 S   0  0  0  0  0  0  0  0  0  0  0  0
  -12.5138   -4.6822  -23.5112 O   0  0  0  0  0  0  0  0  0  0  0  0
  -11.0413   -3.4641  -25.1596 O   0  0  0  0  0  0  0  0  0  0  0  0
  -10.0381   -4.5588  -23.0422 N   0  0  0  0  0  0  0  0  0  0  0  0
   -8.7579   -3.9147  -23.4109 C   0  0  0  0  0  0  0  0  0  0  0  0
   -8.9396   -2.8300  -22.3341 C   0  0  0  0  0  0  0  0  0  0  0  0
  -10.1853   -3.6212  -21.8629 C   0  0  0  0  0  0  0  0  0  0  0  0
  -10.0279   -4.1537  -20.9231 H   0  0  0  0  0  0  0  0  0  0  0  0
  -11.1154   -3.0499  -21.8214 H   0  0  0  0  0  0  0  0  0  0  0  0
   -7.7640   -2.7204  -21.3869 C   0  0  0  0  0  0  0  0  0  0  0  0
   -7.1119   -3.6145  -20.9033 O   0  0  0  0  0  0  0  0  0  0  0  0
   -7.5072   -1.3619  -21.2405 N   0  0  0  0  0  0  0  0  0  0  0  0
   -6.6499   -0.8574  -20.2377 C   0  0  0  0  0  0  0  0  0  0  0  0
   -6.9315   -1.1741  -18.9357 C   0  0  0  0  0  0  0  0  0  0  0  0
   -6.1641   -0.8301  -17.8794 N   0  0  0  0  0  0  0  0  0  0  0  0
   -5.1099   -0.0933  -18.1295 C   0  0  0  0  0  0  0  0  0  0  0  0
   -4.7501    0.3604  -19.4289 C   0  0  0  0  0  0  0  0  0  0  0  0
   -3.6457    1.2247  -19.6166 C   0  0  0  0  0  0  0  0  0  0  0  0
   -3.2489    1.5584  -20.8781 C   0  0  0  0  0  0  0  0  0  0  0  0
   -3.9324    1.0491  -22.0029 C   0  0  0  0  0  0  0  0  0  0  0  0
   -5.0412    0.2554  -21.8491 C   0  0  0  0  0  0  0  0  0  0  0  0
   -5.4989   -0.0750  -20.5421 C   0  0  0  0  0  0  0  0  0  0  0  0
   -5.5675   -0.1185  -22.7217 H   0  0  0  0  0  0  0  0  0  0  0  0
   -3.5723    1.2946  -22.9953 H   0  0  0  0  0  0  0  0  0  0  0  0
   -2.3970    2.2120  -21.0201 H   0  0  0  0  0  0  0  0  0  0  0  0
   -3.1460    1.6055  -18.7307 H   0  0  0  0  0  0  0  0  0  0  0  0
   -4.4692    0.1831  -17.2896 H   0  0  0  0  0  0  0  0  0  0  0  0
   -7.8374   -1.7280  -18.7069 H   0  0  0  0  0  0  0  0  0  0  0  0
   -8.3170   -0.5786  -22.0789 C   0  0  0  0  0  0  0  0  0  0  0  0
   -8.2799    0.6196  -22.2132 O   0  0  0  0  0  0  0  0  0  0  0  0
   -9.1429   -1.4553  -22.7305 N   0  0  0  0  0  0  0  0  0  0  0  0
  -10.0788   -0.9909  -23.7326 C   0  0  0  0  0  0  0  0  0  0  0  0
   -9.8157   -1.3818  -24.7181 H   0  0  0  0  0  0  0  0  0  0  0  0
  -11.1007   -1.2921  -23.4854 H   0  0  0  0  0  0  0  0  0  0  0  0
  -10.0179    0.0972  -23.7383 H   0  0  0  0  0  0  0  0  0  0  0  0
   -7.9222   -4.5749  -23.1648 H   0  0  0  0  0  0  0  0  0  0  0  0
   -8.7012   -3.5366  -24.4299 H   0  0  0  0  0  0  0  0  0  0  0  0
  -11.8812   -6.0797  -25.8321 H   0  0  0  0  0  0  0  0  0  0  0  0
  -11.0531   -6.9312  -24.5419 H   0  0  0  0  0  0  0  0  0  0  0  0
   -8.8338   -6.0248  -25.2800 H   0  0  0  0  0  0  0  0  0  0  0  0
   -9.6696   -5.1162  -26.5814 H   0  0  0  0  0  0  0  0  0  0  0  0
   -9.6198   -6.9024  -26.5972 H   0  0  0  0  0  0  0  0  0  0  0  0
  1  2  1  0
  2  3  1  0
  3  4  2  0
  3  5  2  0
  3  6  1  0
  6  7  1  0
  7  8  1  0
  8  9  1  0
  9 10  1  0
  9 11  1  0
  8 12  1  0
 12 13  2  0
 12 14  1  0
 14 15  1  0
 15 16  2  0
 16 17  1  0
 17 18  2  0
 18 19  1  0
 19 20  2  0
 20 21  1  0
 21 22  2  0
 22 23  1  0
 23 24  2  0
 23 25  1  0
 22 26  1  0
 21 27  1  0
 20 28  1  0
 18 29  1  0
 16 30  1  0
 14 31  1  0
 31 32  2  0
 31 33  1  0
 33 34  1  0
 34 35  1  0
 34 36  1  0
 34 37  1  0
  7 38  1  0
  7 39  1  0
  2 40  1  0
  2 41  1  0
  1 42  1  0
  1 43  1  0
  1 44  1  0
  9  6  1  0
 24 15  1  0
 33  8  1  0
 24 19  1  0
M  END
>  <cnnaffinities>  (8) 
[5.2807, 5.65276]

>  <score>  (8) 
5.2807

>  <index>  (8) 
7

>  <Smiles>  (8) 
C(C(S(=O)(=O)N1C(C2(C1([H])[H])C(=O)N(c1c(nc(c3c(c(c(c(c13)[H])[H])[H])[H])[H])[H])C(=O)N2C([H])([H])[H])([H])[H])([H])[H])([H])([H])[H]

>  <h>  (8) 
<NA>

>  <Training>  (8) 
True

>  <Success>  (8) 
True

>  <enamine_searched>  (8) 
False

>  <enamine_id>  (8) 
nan

$$$$

     RDKit          3D

 60 64  0  0  0  0  0  0  0  0999 V2000
   -7.4333    3.3864  -21.7797 C   0  0  0  0  0  0  0  0  0  0  0  0
   -8.2678    2.8967  -22.8518 N   0  0  0  0  0  0  0  0  0  0  0  0
   -7.7064    2.2183  -23.8771 C   0  0  0  0  0  0  0  0  0  0  0  0
   -6.4925    2.1109  -24.0053 O   0  0  0  0  0  0  0  0  0  0  0  0
   -8.6649    1.6048  -24.8965 C   0  0  0  0  0  0  0  0  0  0  0  0
   -9.3898    0.4574  -24.3898 N   0  0  0  0  0  0  0  0  0  0  0  0
   -8.6743   -0.7956  -24.2227 C   0  0  0  0  0  0  0  0  0  0  0  0
   -9.0640   -1.5131  -22.9097 C   0  0  2  0  0  0  0  0  0  0  0  0
   -8.5193   -0.7278  -21.6958 C   0  0  0  0  0  0  0  0  0  0  0  0
   -8.9651    0.2943  -21.2056 O   0  0  0  0  0  0  0  0  0  0  0  0
   -7.4074   -1.3755  -21.2251 N   0  0  0  0  0  0  0  0  0  0  0  0
   -6.6214   -0.8155  -20.1912 C   0  0  0  0  0  0  0  0  0  0  0  0
   -6.9375   -1.0814  -18.8851 C   0  0  0  0  0  0  0  0  0  0  0  0
   -6.1791   -0.6960  -17.8320 N   0  0  0  0  0  0  0  0  0  0  0  0
   -5.1100    0.0225  -18.0845 C   0  0  0  0  0  0  0  0  0  0  0  0
   -4.7163    0.4531  -19.3898 C   0  0  0  0  0  0  0  0  0  0  0  0
   -3.6115    1.3229  -19.6275 C   0  0  0  0  0  0  0  0  0  0  0  0
   -3.2370    1.6447  -20.9050 C   0  0  0  0  0  0  0  0  0  0  0  0
   -3.9544    1.1299  -22.0086 C   0  0  0  0  0  0  0  0  0  0  0  0
   -5.0487    0.3236  -21.8042 C   0  0  0  0  0  0  0  0  0  0  0  0
   -5.4732   -0.0166  -20.4901 C   0  0  0  0  0  0  0  0  0  0  0  0
   -5.5992   -0.0557  -22.6594 H   0  0  0  0  0  0  0  0  0  0  0  0
   -3.6467    1.3773  -23.0193 H   0  0  0  0  0  0  0  0  0  0  0  0
   -2.3803    2.2914  -21.0812 H   0  0  0  0  0  0  0  0  0  0  0  0
   -3.0877    1.7408  -18.7706 H   0  0  0  0  0  0  0  0  0  0  0  0
   -4.4944    0.3014  -17.2260 H   0  0  0  0  0  0  0  0  0  0  0  0
   -7.8277   -1.6627  -18.6511 H   0  0  0  0  0  0  0  0  0  0  0  0
   -7.0749   -2.5953  -21.9270 C   0  0  0  0  0  0  0  0  0  0  0  0
   -8.3333   -2.8863  -22.7613 C   0  0  2  0  0  0  0  0  0  0  0  0
   -7.9815   -3.6523  -24.0317 C   0  0  0  0  0  0  0  0  0  0  0  0
   -9.1462   -3.9340  -24.7623 O   0  0  0  0  0  0  0  0  0  0  0  0
   -8.8681   -4.5823  -25.9786 C   0  0  0  0  0  0  0  0  0  0  0  0
   -8.2724   -3.9470  -26.6524 H   0  0  0  0  0  0  0  0  0  0  0  0
   -8.3182   -5.5214  -25.8181 H   0  0  0  0  0  0  0  0  0  0  0  0
   -9.8250   -4.8055  -26.4547 H   0  0  0  0  0  0  0  0  0  0  0  0
   -7.2785   -3.0624  -24.6420 H   0  0  0  0  0  0  0  0  0  0  0  0
   -7.4679   -4.5930  -23.7745 H   0  0  0  0  0  0  0  0  0  0  0  0
   -9.0056   -3.5197  -22.1839 H   0  0  0  0  0  0  0  0  0  0  0  0
   -6.1934   -2.4460  -22.5704 H   0  0  0  0  0  0  0  0  0  0  0  0
   -6.8334   -3.4001  -21.2214 H   0  0  0  0  0  0  0  0  0  0  0  0
  -10.5795   -1.5577  -22.8384 C   0  0  0  0  0  0  0  0  0  0  0  0
  -11.2141   -2.4391  -21.9558 C   0  0  0  0  0  0  0  0  0  0  0  0
  -12.5926   -2.4503  -21.8616 C   0  0  0  0  0  0  0  0  0  0  0  0
  -13.3704   -3.5354  -20.7466 Cl  0  0  0  0  0  0  0  0  0  0  0  0
  -13.3815   -1.5862  -22.6222 C   0  0  0  0  0  0  0  0  0  0  0  0
  -12.7629   -0.6656  -23.4452 C   0  0  0  0  0  0  0  0  0  0  0  0
  -11.3721   -0.6274  -23.5289 C   0  0  0  0  0  0  0  0  0  0  0  0
  -10.7557    0.4994  -24.2998 C   0  0  0  0  0  0  0  0  0  0  0  0
  -11.4349    1.4012  -24.7800 O   0  0  0  0  0  0  0  0  0  0  0  0
  -13.3214    0.0674  -24.0220 H   0  0  0  0  0  0  0  0  0  0  0  0
  -14.4594   -1.6269  -22.5327 H   0  0  0  0  0  0  0  0  0  0  0  0
  -10.6368   -3.0965  -21.3159 H   0  0  0  0  0  0  0  0  0  0  0  0
   -8.8891   -1.4743  -25.0596 H   0  0  0  0  0  0  0  0  0  0  0  0
   -7.6062   -0.5564  -24.2089 H   0  0  0  0  0  0  0  0  0  0  0  0
   -9.4377    2.3128  -25.2033 H   0  0  0  0  0  0  0  0  0  0  0  0
   -8.0417    1.3270  -25.7549 H   0  0  0  0  0  0  0  0  0  0  0  0
   -9.2570    2.8065  -22.6938 H   0  0  0  0  0  0  0  0  0  0  0  0
   -6.6892    4.0891  -22.1592 H   0  0  0  0  0  0  0  0  0  0  0  0
   -6.9047    2.5611  -21.2851 H   0  0  0  0  0  0  0  0  0  0  0  0
   -8.0682    3.9143  -21.0729 H   0  0  0  0  0  0  0  0  0  0  0  0
  1  2  1  0
  2  3  1  0
  3  4  2  0
  3  5  1  0
  5  6  1  0
  6  7  1  0
  8  7  1  6
  8  9  1  0
  9 10  2  0
  9 11  1  0
 11 12  1  0
 12 13  2  0
 13 14  1  0
 14 15  2  0
 15 16  1  0
 16 17  2  0
 17 18  1  0
 18 19  2  0
 19 20  1  0
 20 21  2  0
 20 22  1  0
 19 23  1  0
 18 24  1  0
 17 25  1  0
 15 26  1  0
 13 27  1  0
 11 28  1  0
 28 29  1  0
 29 30  1  0
 30 31  1  0
 31 32  1  0
 32 33  1  0
 32 34  1  0
 32 35  1  0
 30 36  1  0
 30 37  1  0
 29 38  1  1
 28 39  1  0
 28 40  1  0
  8 41  1  0
 41 42  2  0
 42 43  1  0
 43 44  1  0
 43 45  2  0
 45 46  1  0
 46 47  2  0
 47 48  1  0
 48 49  2  0
 46 50  1  0
 45 51  1  0
 42 52  1  0
  7 53  1  0
  7 54  1  0
  5 55  1  0
  5 56  1  0
  2 57  1  0
  1 58  1  0
  1 59  1  0
  1 60  1  0
 48  6  1  0
 29  8  1  0
 47 41  1  0
 21 12  1  0
 21 16  1  0
M  END
>  <cnnaffinities>  (9) 
[6.37901, 6.29731, 6.22979]

>  <score>  (9) 
6.37901

>  <index>  (9) 
8

>  <Smiles>  (9) 
C(N(C(=O)C(N1C([C@@]2(C(=O)N(c3c(nc(c4c(c(c(c(c34)[H])[H])[H])[H])[H])[H])C([C@@]2(C(OC([H])([H])[H])([H])[H])[H])([H])[H])c2c(c(Cl)c(c(c2C1=O)[H])[H])[H])([H])[H])([H])[H])[H])([H])([H])[H]

>  <h>  (9) 
<NA>

>  <Training>  (9) 
True

>  <Success>  (9) 
True

>  <enamine_searched>  (9) 
False

>  <enamine_id>  (9) 
nan

$$$$

     RDKit          3D

 41 43  0  0  0  0  0  0  0  0999 V2000
  -13.1848   -2.9328  -22.8956 C   0  0  0  0  0  0  0  0  0  0  0  0
  -11.9745   -2.0487  -23.2190 C   0  0  1  0  0  0  0  0  0  0  0  0
  -12.1607   -0.6612  -22.6373 C   0  0  0  0  0  0  0  0  0  0  0  0
  -11.3085    0.3476  -22.8185 C   0  0  0  0  0  0  0  0  0  0  0  0
  -10.0085    0.2133  -23.5881 C   0  0  0  0  0  0  0  0  0  0  0  0
   -9.0914   -0.7834  -23.0366 N   0  0  0  0  0  0  0  0  0  0  0  0
   -8.3778   -0.3936  -21.9331 C   0  0  0  0  0  0  0  0  0  0  0  0
   -8.4857    0.7320  -21.4682 O   0  0  0  0  0  0  0  0  0  0  0  0
   -7.4370   -1.4256  -21.2990 C   0  0  0  0  0  0  0  0  0  0  0  0
   -6.6012   -0.8316  -20.2041 C   0  0  0  0  0  0  0  0  0  0  0  0
   -6.9178   -1.0705  -18.8957 C   0  0  0  0  0  0  0  0  0  0  0  0
   -6.1798   -0.6682  -17.8276 N   0  0  0  0  0  0  0  0  0  0  0  0
   -5.1075    0.0433  -18.0762 C   0  0  0  0  0  0  0  0  0  0  0  0
   -4.7121    0.4638  -19.3812 C   0  0  0  0  0  0  0  0  0  0  0  0
   -3.6078    1.3304  -19.6141 C   0  0  0  0  0  0  0  0  0  0  0  0
   -3.2294    1.6484  -20.8899 C   0  0  0  0  0  0  0  0  0  0  0  0
   -3.9448    1.1297  -21.9935 C   0  0  0  0  0  0  0  0  0  0  0  0
   -5.0391    0.3256  -21.7950 C   0  0  0  0  0  0  0  0  0  0  0  0
   -5.4646   -0.0128  -20.4814 C   0  0  0  0  0  0  0  0  0  0  0  0
   -5.5871   -0.0673  -22.6464 H   0  0  0  0  0  0  0  0  0  0  0  0
   -3.6188    1.3702  -23.0015 H   0  0  0  0  0  0  0  0  0  0  0  0
   -2.3697    2.2868  -21.0690 H   0  0  0  0  0  0  0  0  0  0  0  0
   -3.0836    1.7424  -18.7539 H   0  0  0  0  0  0  0  0  0  0  0  0
   -4.4929    0.3129  -17.2114 H   0  0  0  0  0  0  0  0  0  0  0  0
   -7.7940   -1.6655  -18.6306 H   0  0  0  0  0  0  0  0  0  0  0  0
   -6.8111   -1.8994  -22.0683 H   0  0  0  0  0  0  0  0  0  0  0  0
   -8.0571   -2.2255  -20.8706 H   0  0  0  0  0  0  0  0  0  0  0  0
   -9.3828   -2.1686  -23.3890 C   0  0  0  0  0  0  0  0  0  0  0  0
  -10.6634   -2.7219  -22.7417 C   0  0  0  0  0  0  0  0  0  0  0  0
  -10.6006   -2.6476  -21.6421 H   0  0  0  0  0  0  0  0  0  0  0  0
  -10.7280   -3.7879  -22.9875 H   0  0  0  0  0  0  0  0  0  0  0  0
   -8.5173   -2.7894  -23.1357 H   0  0  0  0  0  0  0  0  0  0  0  0
   -9.4950   -2.2003  -24.4861 H   0  0  0  0  0  0  0  0  0  0  0  0
  -10.2089   -0.1069  -24.6209 H   0  0  0  0  0  0  0  0  0  0  0  0
   -9.4840    1.1736  -23.6072 H   0  0  0  0  0  0  0  0  0  0  0  0
  -11.5352    1.3287  -22.4018 H   0  0  0  0  0  0  0  0  0  0  0  0
  -13.0511   -0.4958  -22.0240 H   0  0  0  0  0  0  0  0  0  0  0  0
  -11.8985   -1.9497  -24.3202 H   0  0  0  0  0  0  0  0  0  0  0  0
  -13.0989   -3.9130  -23.3763 H   0  0  0  0  0  0  0  0  0  0  0  0
  -13.2683   -3.0944  -21.8132 H   0  0  0  0  0  0  0  0  0  0  0  0
  -14.1114   -2.4641  -23.2428 H   0  0  0  0  0  0  0  0  0  0  0  0
  1  2  1  0
  2  3  1  0
  3  4  2  0
  4  5  1  0
  5  6  1  0
  6  7  1  0
  7  8  2  0
  7  9  1  0
  9 10  1  0
 10 11  2  0
 11 12  1  0
 12 13  2  0
 13 14  1  0
 14 15  2  0
 15 16  1  0
 16 17  2  0
 17 18  1  0
 18 19  2  0
 18 20  1  0
 17 21  1  0
 16 22  1  0
 15 23  1  0
 13 24  1  0
 11 25  1  0
  9 26  1  0
  9 27  1  0
  6 28  1  0
 28 29  1  0
 29 30  1  0
 29 31  1  0
 28 32  1  0
 28 33  1  0
  5 34  1  0
  5 35  1  0
  4 36  1  0
  3 37  1  0
  2 38  1  6
  1 39  1  0
  1 40  1  0
  1 41  1  0
 29  2  1  0
 19 10  1  0
 19 14  1  0
M  END
>  <cnnaffinities>  (10) 
[4.77151, 4.99195]

>  <score>  (10) 
4.77151

>  <index>  (10) 
9

>  <Smiles>  (10) 
C([C@]1(C(=C(C(N(C(=O)C(c2c(nc(c3c(c(c(c(c23)[H])[H])[H])[H])[H])[H])([H])[H])C(C1([H])[H])([H])[H])([H])[H])[H])[H])[H])([H])([H])[H]

>  <h>  (10) 
<NA>

>  <Training>  (10) 
True

>  <Success>  (10) 
True

>  <enamine_searched>  (10) 
False

>  <enamine_id>  (10) 
nan

$$$$

     RDKit          3D

 57 62  0  0  0  0  0  0  0  0999 V2000
  -10.4084   -0.9779  -23.4618 C   0  0  0  0  0  0  0  0  0  0  0  0
   -9.0066   -1.4002  -23.0237 C   0  0  1  0  0  0  0  0  0  0  0  0
   -8.3924   -0.5127  -21.9289 C   0  0  0  0  0  0  0  0  0  0  0  0
   -7.4217   -1.3907  -21.2879 N   0  0  0  0  0  0  0  0  0  0  0  0
   -6.5676   -0.9845  -20.2345 C   0  0  0  0  0  0  0  0  0  0  0  0
   -6.8414   -1.3439  -18.9393 C   0  0  0  0  0  0  0  0  0  0  0  0
   -6.1112   -0.9401  -17.8702 N   0  0  0  0  0  0  0  0  0  0  0  0
   -5.0788   -0.1648  -18.0930 C   0  0  0  0  0  0  0  0  0  0  0  0
   -4.6826    0.2847  -19.3849 C   0  0  0  0  0  0  0  0  0  0  0  0
   -3.5794    1.1599  -19.5811 C   0  0  0  0  0  0  0  0  0  0  0  0
   -3.2289    1.5608  -20.8400 C   0  0  0  0  0  0  0  0  0  0  0  0
   -3.9449    1.0878  -21.9640 C   0  0  0  0  0  0  0  0  0  0  0  0
   -5.0182    0.2440  -21.7994 C   0  0  0  0  0  0  0  0  0  0  0  0
   -5.4340   -0.1522  -20.5012 C   0  0  0  0  0  0  0  0  0  0  0  0
   -5.5570   -0.1347  -22.6613 H   0  0  0  0  0  0  0  0  0  0  0  0
   -3.6408    1.3968  -22.9600 H   0  0  0  0  0  0  0  0  0  0  0  0
   -2.3922    2.2398  -20.9926 H   0  0  0  0  0  0  0  0  0  0  0  0
   -3.0346    1.5081  -18.7053 H   0  0  0  0  0  0  0  0  0  0  0  0
   -4.4925    0.1366  -17.2225 H   0  0  0  0  0  0  0  0  0  0  0  0
   -7.6858   -1.9913  -18.7097 H   0  0  0  0  0  0  0  0  0  0  0  0
   -7.7139   -2.7237  -21.4650 C   0  0  0  0  0  0  0  0  0  0  0  0
   -7.1257   -3.6276  -20.9030 O   0  0  0  0  0  0  0  0  0  0  0  0
   -8.8738   -2.8564  -22.4623 C   0  0  1  0  0  0  0  0  0  0  0  0
  -10.0970   -3.3108  -21.6416 C   0  0  0  0  0  0  0  0  0  0  0  0
  -11.2212   -3.7777  -22.4481 N   0  0  0  0  0  0  0  0  0  0  0  0
  -12.5700   -3.7388  -21.8818 C   0  0  0  0  0  0  0  0  0  0  0  0
  -13.4193   -2.5893  -22.3217 C   0  0  0  0  0  0  0  0  0  0  0  0
  -14.0802   -1.6477  -21.6131 C   0  0  0  0  0  0  0  0  0  0  0  0
  -14.8311   -0.9151  -22.4995 N   0  0  0  0  0  4  0  0  0  0  0  0
  -14.6204   -1.4028  -23.7302 C   0  0  0  0  0  0  0  0  0  0  0  0
  -13.7666   -2.4255  -23.6459 N   0  0  0  0  0  0  0  0  0  0  0  0
  -13.3942   -3.0417  -24.3776 H   0  0  0  0  0  0  0  0  0  0  0  0
  -15.0593   -1.0257  -24.6266 H   0  0  0  0  0  0  0  0  0  0  0  0
  -15.4676   -0.1798  -22.2065 H   0  0  0  0  0  0  0  0  0  0  0  0
  -14.0390   -1.3870  -20.5684 H   0  0  0  0  0  0  0  0  0  0  0  0
  -13.0912   -4.6394  -22.2261 H   0  0  0  0  0  0  0  0  0  0  0  0
  -12.5058   -3.7619  -20.7874 H   0  0  0  0  0  0  0  0  0  0  0  0
  -11.0506   -4.4045  -23.6472 C   0  0  0  0  0  0  0  0  0  0  0  0
  -12.0136   -4.6936  -24.3644 O   0  0  0  0  0  0  0  0  0  0  0  0
   -9.6337   -4.6639  -24.0526 C   0  0  0  0  0  0  0  0  0  0  0  0
   -9.3657   -5.6750  -24.9716 C   0  0  0  0  0  0  0  0  0  0  0  0
   -8.0729   -5.9043  -25.4121 C   0  0  0  0  0  0  0  0  0  0  0  0
   -7.0612   -5.0801  -24.9345 C   0  0  0  0  0  0  0  0  0  0  0  0
   -5.8124   -5.2621  -25.3954 F   0  0  0  0  0  0  0  0  0  0  0  0
   -7.2910   -4.0909  -24.0005 C   0  0  0  0  0  0  0  0  0  0  0  0
   -8.5908   -3.8963  -23.5193 C   0  0  0  0  0  0  0  0  0  0  0  0
   -6.4512   -3.5170  -23.6233 H   0  0  0  0  0  0  0  0  0  0  0  0
   -7.8255   -6.7056  -26.0982 H   0  0  0  0  0  0  0  0  0  0  0  0
  -10.1953   -6.2805  -25.3229 H   0  0  0  0  0  0  0  0  0  0  0  0
   -9.7538   -4.1063  -20.9716 H   0  0  0  0  0  0  0  0  0  0  0  0
  -10.4215   -2.4562  -21.0379 H   0  0  0  0  0  0  0  0  0  0  0  0
   -7.9007    0.3745  -22.3347 H   0  0  0  0  0  0  0  0  0  0  0  0
   -9.1498   -0.1753  -21.2039 H   0  0  0  0  0  0  0  0  0  0  0  0
   -8.3360   -1.3657  -23.8933 H   0  0  0  0  0  0  0  0  0  0  0  0
  -11.1198   -0.9950  -22.6281 H   0  0  0  0  0  0  0  0  0  0  0  0
  -10.7871   -1.6558  -24.2328 H   0  0  0  0  0  0  0  0  0  0  0  0
  -10.4103    0.0357  -23.8714 H   0  0  0  0  0  0  0  0  0  0  0  0
  1  2  1  0
  2  3  1  0
  3  4  1  0
  4  5  1  0
  5  6  2  0
  6  7  1  0
  7  8  2  0
  8  9  1  0
  9 10  2  0
 10 11  1  0
 11 12  2  0
 12 13  1  0
 13 14  2  0
 13 15  1  0
 12 16  1  0
 11 17  1  0
 10 18  1  0
  8 19  1  0
  6 20  1  0
  4 21  1  0
 21 22  2  0
 21 23  1  0
 23 24  1  1
 24 25  1  0
 25 26  1  0
 26 27  1  0
 27 28  2  0
 28 29  1  0
 29 30  2  0
 30 31  1  0
 31 32  1  0
 30 33  1  0
 29 34  1  0
 28 35  1  0
 26 36  1  0
 26 37  1  0
 25 38  1  0
 38 39  2  0
 38 40  1  0
 40 41  2  0
 41 42  1  0
 42 43  2  0
 43 44  1  0
 43 45  1  0
 45 46  2  0
 45 47  1  0
 42 48  1  0
 41 49  1  0
 24 50  1  0
 24 51  1  0
  3 52  1  0
  3 53  1  0
  2 54  1  6
  1 55  1  0
  1 56  1  0
  1 57  1  0
 23  2  1  0
 31 27  1  0
 46 40  1  0
 14  5  1  0
 46 23  1  0
 14  9  1  0
M  CHG  1  29   1
M  END
>  <cnnaffinities>  (11) 
[6.86667]

>  <score>  (11) 
6.86667

>  <index>  (11) 
10

>  <Smiles>  (11) 
C([C@]1(C(N(c2c(nc(c3c(c(c(c(c23)[H])[H])[H])[H])[H])[H])C(=O)[C@]21C(N(C(c1c([n+](c(n1[H])[H])[H])[H])([H])[H])C(=O)c1c(c(c(F)c(c21)[H])[H])[H])([H])[H])([H])[H])[H])([H])([H])[H]

>  <h>  (11) 
<NA>

>  <Training>  (11) 
True

>  <Success>  (11) 
True

>  <enamine_searched>  (11) 
False

>  <enamine_id>  (11) 
nan

$$$$

     RDKit          3D

 48 52  0  0  0  0  0  0  0  0999 V2000
  -10.1310   -0.8363  -23.6419 C   0  0  0  0  0  0  0  0  0  0  0  0
   -9.1219   -1.3914  -22.7626 N   0  0  0  0  0  0  0  0  0  0  0  0
   -8.3470   -0.5671  -21.9857 C   0  0  0  0  0  0  0  0  0  0  0  0
   -8.3769    0.6400  -21.9455 O   0  0  0  0  0  0  0  0  0  0  0  0
   -7.5005   -1.4043  -21.2383 N   0  0  0  0  0  0  0  0  0  0  0  0
   -6.6120   -0.9540  -20.2253 C   0  0  0  0  0  0  0  0  0  0  0  0
   -6.8745   -1.3157  -18.9318 C   0  0  0  0  0  0  0  0  0  0  0  0
   -6.1239   -0.9486  -17.8698 N   0  0  0  0  0  0  0  0  0  0  0  0
   -5.0776   -0.1942  -18.0967 C   0  0  0  0  0  0  0  0  0  0  0  0
   -4.6895    0.2550  -19.3899 C   0  0  0  0  0  0  0  0  0  0  0  0
   -3.5630    1.0998  -19.5761 C   0  0  0  0  0  0  0  0  0  0  0  0
   -3.2086    1.5031  -20.8323 C   0  0  0  0  0  0  0  0  0  0  0  0
   -3.9507    1.0716  -21.9533 C   0  0  0  0  0  0  0  0  0  0  0  0
   -5.0487    0.2609  -21.8013 C   0  0  0  0  0  0  0  0  0  0  0  0
   -5.4626   -0.1480  -20.5033 C   0  0  0  0  0  0  0  0  0  0  0  0
   -5.6145   -0.0603  -22.6703 H   0  0  0  0  0  0  0  0  0  0  0  0
   -3.6494    1.3916  -22.9449 H   0  0  0  0  0  0  0  0  0  0  0  0
   -2.3521    2.1552  -20.9798 H   0  0  0  0  0  0  0  0  0  0  0  0
   -3.0063    1.4231  -18.7009 H   0  0  0  0  0  0  0  0  0  0  0  0
   -4.4775    0.0920  -17.2320 H   0  0  0  0  0  0  0  0  0  0  0  0
   -7.7416   -1.9340  -18.7102 H   0  0  0  0  0  0  0  0  0  0  0  0
   -7.8152   -2.7419  -21.4351 C   0  0  0  0  0  0  0  0  0  0  0  0
   -7.2471   -3.6866  -20.9343 O   0  0  0  0  0  0  0  0  0  0  0  0
   -8.9260   -2.7885  -22.4614 C   0  0  0  0  0  0  0  0  0  0  0  0
   -8.6063   -3.8187  -23.5693 C   0  0  0  0  0  0  0  0  0  0  0  0
   -9.8611   -4.5344  -23.3035 N   0  0  0  0  0  0  0  0  0  0  0  0
  -10.9453   -4.5982  -24.5975 S   0  0  0  0  0  0  0  0  0  0  0  0
  -11.0847   -3.2638  -25.1718 O   0  0  0  0  0  0  0  0  0  0  0  0
  -12.1019   -5.3180  -24.1228 O   0  0  0  0  0  0  0  0  0  0  0  0
  -10.0630   -5.5860  -25.7827 C   0  0  0  0  0  0  0  0  0  0  0  0
   -9.3144   -4.9666  -26.7815 C   0  0  0  0  0  0  0  0  0  0  0  0
   -8.6027   -5.7627  -27.6714 C   0  0  0  0  0  0  0  0  0  0  0  0
   -8.6604   -7.1492  -27.5616 C   0  0  0  0  0  0  0  0  0  0  0  0
   -9.4105   -7.7475  -26.5528 C   0  0  0  0  0  0  0  0  0  0  0  0
  -10.1467   -6.9674  -25.6676 C   0  0  0  0  0  0  0  0  0  0  0  0
  -10.8191   -7.4046  -24.9316 H   0  0  0  0  0  0  0  0  0  0  0  0
   -9.4437   -8.8254  -26.4548 H   0  0  0  0  0  0  0  0  0  0  0  0
   -8.0834   -7.7658  -28.2420 H   0  0  0  0  0  0  0  0  0  0  0  0
   -8.0452   -5.2916  -28.4727 H   0  0  0  0  0  0  0  0  0  0  0  0
   -9.2948   -3.8818  -26.8495 H   0  0  0  0  0  0  0  0  0  0  0  0
  -10.1610   -3.6692  -22.1174 C   0  0  0  0  0  0  0  0  0  0  0  0
   -9.9959   -4.2290  -21.1938 H   0  0  0  0  0  0  0  0  0  0  0  0
  -11.1493   -3.2007  -22.1170 H   0  0  0  0  0  0  0  0  0  0  0  0
   -7.7581   -4.4481  -23.2918 H   0  0  0  0  0  0  0  0  0  0  0  0
   -8.4778   -3.4470  -24.5848 H   0  0  0  0  0  0  0  0  0  0  0  0
   -9.9586    0.2412  -23.6653 H   0  0  0  0  0  0  0  0  0  0  0  0
  -11.1429   -1.0175  -23.2620 H   0  0  0  0  0  0  0  0  0  0  0  0
  -10.0384   -1.2643  -24.6417 H   0  0  0  0  0  0  0  0  0  0  0  0
  1  2  1  0
  2  3  1  0
  3  4  2  0
  3  5  1  0
  5  6  1  0
  6  7  2  0
  7  8  1  0
  8  9  2  0
  9 10  1  0
 10 11  2  0
 11 12  1  0
 12 13  2  0
 13 14  1  0
 14 15  2  0
 14 16  1  0
 13 17  1  0
 12 18  1  0
 11 19  1  0
  9 20  1  0
  7 21  1  0
  5 22  1  0
 22 23  2  0
 22 24  1  0
 24 25  1  0
 25 26  1  0
 26 27  1  0
 27 28  2  0
 27 29  2  0
 27 30  1  0
 30 31  2  0
 31 32  1  0
 32 33  2  0
 33 34  1  0
 34 35  2  0
 35 36  1  0
 34 37  1  0
 33 38  1  0
 32 39  1  0
 31 40  1  0
 26 41  1  0
 41 42  1  0
 41 43  1  0
 25 44  1  0
 25 45  1  0
  1 46  1  0
  1 47  1  0
  1 48  1  0
 24  2  1  0
 35 30  1  0
 15  6  1  0
 41 24  1  0
 15 10  1  0
M  END
>  <cnnaffinities>  (12) 
[5.64585, 5.6416]

>  <score>  (12) 
5.64585

>  <index>  (12) 
11

>  <Smiles>  (12) 
C(N1C(=O)N(c2c(nc(c3c(c(c(c(c23)[H])[H])[H])[H])[H])[H])C(=O)C21C(N(S(=O)(=O)c1c(c(c(c(c1[H])[H])[H])[H])[H])C2([H])[H])([H])[H])([H])([H])[H]

>  <h>  (12) 
<NA>

>  <Training>  (12) 
True

>  <Success>  (12) 
True

>  <enamine_searched>  (12) 
False

>  <enamine_id>  (12) 
nan

$$$$

     RDKit          3D

 76 82  0  0  0  0  0  0  0  0999 V2000
  -11.3535    1.5548  -24.1128 O   0  0  0  0  0  0  0  0  0  0  0  0
  -10.7280    0.5236  -23.8924 C   0  0  0  0  0  0  0  0  0  0  0  0
  -11.3750   -0.6936  -23.3065 C   0  0  0  0  0  0  0  0  0  0  0  0
  -12.7605   -0.6664  -23.2687 C   0  0  0  0  0  0  0  0  0  0  0  0
  -13.4622   -1.7194  -22.7386 C   0  0  0  0  0  0  0  0  0  0  0  0
  -12.7396   -2.7995  -22.2379 C   0  0  0  0  0  0  0  0  0  0  0  0
  -13.7043   -4.0613  -21.5464 Cl  0  0  0  0  0  0  0  0  0  0  0  0
  -11.3505   -2.8576  -22.2613 C   0  0  0  0  0  0  0  0  0  0  0  0
  -10.6355   -1.7850  -22.8164 C   0  0  0  0  0  0  0  0  0  0  0  0
   -9.1231   -1.6850  -22.8261 C   0  0  1  0  0  0  0  0  0  0  0  0
   -8.7570   -0.8967  -24.1088 C   0  0  0  0  0  0  0  0  0  0  0  0
   -9.4057    0.3952  -24.1647 N   0  0  0  0  0  0  0  0  0  0  0  0
   -8.6481    1.5797  -24.5131 C   0  0  0  0  0  0  0  0  0  0  0  0
   -8.0726    2.2339  -23.2595 C   0  0  0  0  0  0  0  0  0  0  0  0
   -7.2505    3.4340  -23.5253 N   0  0  0  0  0  4  0  0  0  0  0  0
   -6.0604    3.1629  -24.4272 C   0  0  0  0  0  0  0  0  0  0  0  0
   -5.0258    4.2817  -24.2489 C   0  0  0  0  0  0  0  0  0  0  0  0
   -5.6781    5.4719  -23.8634 O   0  0  0  0  0  0  0  0  0  0  0  0
   -6.0987    5.4010  -22.5154 C   0  0  0  0  0  0  0  0  0  0  0  0
   -6.8429    4.0830  -22.2346 C   0  0  0  0  0  0  0  0  0  0  0  0
   -7.7395    4.2543  -21.6296 H   0  0  0  0  0  0  0  0  0  0  0  0
   -6.2041    3.3780  -21.6889 H   0  0  0  0  0  0  0  0  0  0  0  0
   -5.2351    5.4853  -21.8334 H   0  0  0  0  0  0  0  0  0  0  0  0
   -6.7349    6.2767  -22.3600 H   0  0  0  0  0  0  0  0  0  0  0  0
   -4.2666    3.9933  -23.5008 H   0  0  0  0  0  0  0  0  0  0  0  0
   -4.5090    4.4963  -25.1896 H   0  0  0  0  0  0  0  0  0  0  0  0
   -6.4156    3.1389  -25.4595 H   0  0  0  0  0  0  0  0  0  0  0  0
   -5.6378    2.1840  -24.1835 H   0  0  0  0  0  0  0  0  0  0  0  0
   -7.8446    4.1244  -24.0205 H   0  0  0  0  0  0  0  0  0  0  0  0
   -7.4599    1.4998  -22.7256 H   0  0  0  0  0  0  0  0  0  0  0  0
   -8.8887    2.4996  -22.5794 H   0  0  0  0  0  0  0  0  0  0  0  0
   -9.3358    2.2512  -25.0324 H   0  0  0  0  0  0  0  0  0  0  0  0
   -7.8495    1.2764  -25.2023 H   0  0  0  0  0  0  0  0  0  0  0  0
   -9.0793   -1.4983  -24.9636 H   0  0  0  0  0  0  0  0  0  0  0  0
   -7.6779   -0.7365  -24.1628 H   0  0  0  0  0  0  0  0  0  0  0  0
   -8.6170   -0.9104  -21.5896 C   0  0  0  0  0  0  0  0  0  0  0  0
   -9.1614    0.0180  -21.0214 O   0  0  0  0  0  0  0  0  0  0  0  0
   -7.3923   -1.4210  -21.2422 N   0  0  0  0  0  0  0  0  0  0  0  0
   -6.6138   -0.8514  -20.2081 C   0  0  0  0  0  0  0  0  0  0  0  0
   -6.9342   -1.1097  -18.9014 C   0  0  0  0  0  0  0  0  0  0  0  0
   -6.1729   -0.7356  -17.8443 N   0  0  0  0  0  0  0  0  0  0  0  0
   -5.1103   -0.0114  -18.0996 C   0  0  0  0  0  0  0  0  0  0  0  0
   -4.7235    0.4211  -19.4022 C   0  0  0  0  0  0  0  0  0  0  0  0
   -3.6221    1.2916  -19.6197 C   0  0  0  0  0  0  0  0  0  0  0  0
   -3.2349    1.6194  -20.8892 C   0  0  0  0  0  0  0  0  0  0  0  0
   -3.9420    1.1141  -22.0028 C   0  0  0  0  0  0  0  0  0  0  0  0
   -5.0406    0.3077  -21.8195 C   0  0  0  0  0  0  0  0  0  0  0  0
   -5.4695   -0.0486  -20.5087 C   0  0  0  0  0  0  0  0  0  0  0  0
   -5.5793   -0.0672  -22.6855 H   0  0  0  0  0  0  0  0  0  0  0  0
   -3.5997    1.3541  -23.0063 H   0  0  0  0  0  0  0  0  0  0  0  0
   -2.3759    2.2648  -21.0524 H   0  0  0  0  0  0  0  0  0  0  0  0
   -3.1076    1.7016  -18.7547 H   0  0  0  0  0  0  0  0  0  0  0  0
   -4.4829    0.2720  -17.2526 H   0  0  0  0  0  0  0  0  0  0  0  0
   -7.8453   -1.6591  -18.6728 H   0  0  0  0  0  0  0  0  0  0  0  0
   -6.9907   -2.5874  -22.0033 C   0  0  0  0  0  0  0  0  0  0  0  0
   -8.2994   -2.9994  -22.6994 C   0  0  2  0  0  0  0  0  0  0  0  0
   -8.0956   -3.8777  -23.9374 C   0  0  0  0  0  0  0  0  0  0  0  0
   -7.1818   -3.3342  -24.9242 N   0  0  0  0  0  0  0  0  0  0  0  0
   -7.4468   -3.3234  -26.2621 C   0  0  0  0  0  0  0  0  0  0  0  0
   -6.4009   -2.9667  -27.0311 N   0  0  0  0  0  0  0  0  0  0  0  0
   -6.6544   -2.8533  -28.3196 C   0  0  0  0  0  0  0  0  0  0  0  0
   -7.8886   -3.1511  -28.8792 C   0  0  0  0  0  0  0  0  0  0  0  0
   -8.8820   -3.5466  -28.0044 C   0  0  0  0  0  0  0  0  0  0  0  0
   -8.6829   -3.6150  -26.6843 N   0  0  0  0  0  0  0  0  0  0  0  0
   -9.8781   -3.8118  -28.3594 H   0  0  0  0  0  0  0  0  0  0  0  0
   -8.0290   -3.0699  -29.9375 H   0  0  0  0  0  0  0  0  0  0  0  0
   -5.8136   -2.4980  -28.9094 H   0  0  0  0  0  0  0  0  0  0  0  0
   -6.1942   -3.2902  -24.7279 H   0  0  0  0  0  0  0  0  0  0  0  0
   -7.7624   -4.8752  -23.6193 H   0  0  0  0  0  0  0  0  0  0  0  0
   -9.0474   -4.0036  -24.4489 H   0  0  0  0  0  0  0  0  0  0  0  0
   -8.8451   -3.6192  -21.9802 H   0  0  0  0  0  0  0  0  0  0  0  0
   -6.1816   -2.3321  -22.7027 H   0  0  0  0  0  0  0  0  0  0  0  0
   -6.6127   -3.3722  -21.3397 H   0  0  0  0  0  0  0  0  0  0  0  0
  -10.8366   -3.7208  -21.8423 H   0  0  0  0  0  0  0  0  0  0  0  0
  -14.5472   -1.7170  -22.6860 H   0  0  0  0  0  0  0  0  0  0  0  0
  -13.2446    0.2162  -23.6611 H   0  0  0  0  0  0  0  0  0  0  0  0
  1  2  2  0
  2  3  1  0
  3  4  2  0
  4  5  1  0
  5  6  2  0
  6  7  1  0
  6  8  1  0
  8  9  2  0
  9 10  1  0
 10 11  1  6
 11 12  1  0
 12 13  1  0
 13 14  1  0
 14 15  1  0
 15 16  1  0
 16 17  1  0
 17 18  1  0
 18 19  1  0
 19 20  1  0
 20 21  1  0
 20 22  1  0
 19 23  1  0
 19 24  1  0
 17 25  1  0
 17 26  1  0
 16 27  1  0
 16 28  1  0
 15 29  1  0
 14 30  1  0
 14 31  1  0
 13 32  1  0
 13 33  1  0
 11 34  1  0
 11 35  1  0
 10 36  1  0
 36 37  2  0
 36 38  1  0
 38 39  1  0
 39 40  2  0
 40 41  1  0
 41 42  2  0
 42 43  1  0
 43 44  2  0
 44 45  1  0
 45 46  2  0
 46 47  1  0
 47 48  2  0
 47 49  1  0
 46 50  1  0
 45 51  1  0
 44 52  1  0
 42 53  1  0
 40 54  1  0
 38 55  1  0
 55 56  1  0
 56 57  1  0
 57 58  1  0
 58 59  1  0
 59 60  2  0
 60 61  1  0
 61 62  2  0
 62 63  1  0
 63 64  2  0
 63 65  1  0
 62 66  1  0
 61 67  1  0
 58 68  1  0
 57 69  1  0
 57 70  1  0
 56 71  1  1
 55 72  1  0
 55 73  1  0
  8 74  1  0
  5 75  1  0
  4 76  1  0
 12  2  1  0
 20 15  1  0
 48 39  1  0
 64 59  1  0
  9  3  1  0
 56 10  1  0
 48 43  1  0
M  CHG  1  15   1
M  END
>  <cnnaffinities>  (13) 
[6.3973, 6.33047]

>  <score>  (13) 
6.3973

>  <index>  (13) 
12

>  <Smiles>  (13) 
O=C1c2c(c(c(Cl)c(c2[C@@]2(C(N1C(C([N+]1(C(C(OC(C1([H])[H])([H])[H])([H])[H])([H])[H])[H])([H])[H])([H])[H])([H])[H])C(=O)N(c1c(nc(c3c(c(c(c(c13)[H])[H])[H])[H])[H])[H])C([C@@]2(C(N(c1nc(c(c(n1)[H])[H])[H])[H])([H])[H])[H])([H])[H])[H])[H])[H]

>  <h>  (13) 
<NA>

>  <Training>  (13) 
True

>  <Success>  (13) 
True

>  <enamine_searched>  (13) 
False

>  <enamine_id>  (13) 
nan

$$$$

     RDKit          3D

 69 74  0  0  0  0  0  0  0  0999 V2000
  -10.8548    2.8122  -26.9842 C   0  0  0  0  0  0  0  0  0  0  0  0
  -10.3460    1.4560  -26.9967 N   0  0  0  0  0  0  0  0  0  0  0  0
   -9.9541    0.8663  -25.8421 C   0  0  0  0  0  0  0  0  0  0  0  0
  -10.1182    1.4149  -24.7650 O   0  0  0  0  0  0  0  0  0  0  0  0
   -9.2699   -0.5030  -25.9977 C   0  0  0  0  0  0  0  0  0  0  0  0
   -9.4340   -1.3613  -24.8446 N   0  0  0  0  0  0  0  0  0  0  0  0
   -8.6415   -0.9825  -23.6786 C   0  0  0  0  0  0  0  0  0  0  0  0
   -8.6119   -2.0269  -22.5439 C   0  0  2  0  0  0  0  0  0  0  0  0
   -8.1240   -1.2583  -21.2990 C   0  0  0  0  0  0  0  0  0  0  0  0
   -8.7307   -0.4160  -20.6685 O   0  0  0  0  0  0  0  0  0  0  0  0
   -6.8080   -1.5970  -21.0604 N   0  0  0  0  0  0  0  0  0  0  0  0
   -6.0932   -1.0280  -19.9838 C   0  0  0  0  0  0  0  0  0  0  0  0
   -6.4359   -1.3411  -18.6954 C   0  0  0  0  0  0  0  0  0  0  0  0
   -5.7247   -0.9631  -17.6057 N   0  0  0  0  0  0  0  0  0  0  0  0
   -4.6673   -0.2120  -17.8065 C   0  0  0  0  0  0  0  0  0  0  0  0
   -4.2384    0.2402  -19.0878 C   0  0  0  0  0  0  0  0  0  0  0  0
   -3.1293    1.1113  -19.2510 C   0  0  0  0  0  0  0  0  0  0  0  0
   -2.8105    1.5970  -20.4887 C   0  0  0  0  0  0  0  0  0  0  0  0
   -3.5758    1.2350  -21.6201 C   0  0  0  0  0  0  0  0  0  0  0  0
   -4.6348    0.3691  -21.4928 C   0  0  0  0  0  0  0  0  0  0  0  0
   -4.9841   -0.1560  -20.2196 C   0  0  0  0  0  0  0  0  0  0  0  0
   -5.2312    0.1006  -22.3599 H   0  0  0  0  0  0  0  0  0  0  0  0
   -3.3231    1.6485  -22.5921 H   0  0  0  0  0  0  0  0  0  0  0  0
   -1.9698    2.2731  -20.6118 H   0  0  0  0  0  0  0  0  0  0  0  0
   -2.5698    1.4044  -18.3678 H   0  0  0  0  0  0  0  0  0  0  0  0
   -4.1063    0.1028  -16.9268 H   0  0  0  0  0  0  0  0  0  0  0  0
   -7.3230   -1.9413  -18.5006 H   0  0  0  0  0  0  0  0  0  0  0  0
   -6.3046   -2.6941  -21.8645 C   0  0  0  0  0  0  0  0  0  0  0  0
   -7.5753   -3.2091  -22.5225 C   0  0  2  0  0  0  0  0  0  0  0  0
   -7.4040   -4.0301  -23.7911 C   0  0  0  0  0  0  0  0  0  0  0  0
   -6.7306   -3.3074  -24.8488 N   0  0  0  0  0  0  0  0  0  0  0  0
   -6.9086   -3.5761  -26.1734 C   0  0  0  0  0  0  0  0  0  0  0  0
   -7.4645   -4.7817  -26.6390 C   0  0  0  0  0  0  0  0  0  0  0  0
   -7.5288   -4.9268  -28.0062 C   0  0  0  0  0  0  0  0  0  0  0  0
   -7.1006   -4.0064  -28.8752 N   0  0  0  0  0  0  0  0  0  0  0  0
   -6.5962   -2.8978  -28.3331 C   0  0  0  0  0  0  0  0  0  0  0  0
   -6.1073   -1.8359  -29.2768 C   0  0  0  0  0  0  0  0  0  0  0  0
   -6.9500   -1.2545  -29.6643 H   0  0  0  0  0  0  0  0  0  0  0  0
   -5.5989   -2.2901  -30.1295 H   0  0  0  0  0  0  0  0  0  0  0  0
   -5.4335   -1.1587  -28.7491 H   0  0  0  0  0  0  0  0  0  0  0  0
   -6.4846   -2.6327  -27.0287 N   0  0  0  0  0  0  0  0  0  0  0  0
   -7.9415   -5.8375  -28.4432 H   0  0  0  0  0  0  0  0  0  0  0  0
   -7.8044   -5.5615  -25.9631 H   0  0  0  0  0  0  0  0  0  0  0  0
   -6.3758   -2.3780  -24.6749 H   0  0  0  0  0  0  0  0  0  0  0  0
   -8.4062   -4.3143  -24.1265 H   0  0  0  0  0  0  0  0  0  0  0  0
   -6.8684   -4.9616  -23.5615 H   0  0  0  0  0  0  0  0  0  0  0  0
   -8.2443   -3.8286  -21.8163 H   0  0  0  0  0  0  0  0  0  0  0  0
   -5.5690   -2.3536  -22.6052 H   0  0  0  0  0  0  0  0  0  0  0  0
   -5.8167   -3.4467  -21.2359 H   0  0  0  0  0  0  0  0  0  0  0  0
   -9.9873   -2.7632  -22.4334 C   0  0  0  0  0  0  0  0  0  0  0  0
   -9.8268   -3.7893  -21.5766 C   0  0  0  0  0  0  0  0  0  0  0  0
  -12.4938   -3.7085  -21.8279 C   0  0  0  0  0  0  0  0  0  0  0  0
  -11.9519   -4.9324  -24.2763 Cl  0  0  0  0  0  0  0  0  0  0  0  0
  -12.3251   -3.6662  -21.8985 C   0  0  0  0  0  0  0  0  0  0  0  0
  -12.1809   -3.3365  -23.3022 C   0  0  0  0  0  0  0  0  0  0  0  0
  -10.9408   -2.6300  -23.4420 C   0  0  0  0  0  0  0  0  0  0  0  0
  -10.6911   -1.9243  -24.6919 C   0  0  0  0  0  0  0  0  0  0  0  0
  -11.5372   -1.8458  -25.5764 O   0  0  0  0  0  0  0  0  0  0  0  0
  -12.9279   -2.7824  -23.7917 H   0  0  0  0  0  0  0  0  0  0  0  0
  -13.4344   -3.0748  -21.7842 H   0  0  0  0  0  0  0  0  0  0  0  0
  -10.4192   -4.2053  -20.7751 H   0  0  0  0  0  0  0  0  0  0  0  0
   -9.0282   -0.0389  -23.2638 H   0  0  0  0  0  0  0  0  0  0  0  0
   -7.6222   -0.7692  -24.0156 H   0  0  0  0  0  0  0  0  0  0  0  0
   -8.1938   -0.3585  -26.1511 H   0  0  0  0  0  0  0  0  0  0  0  0
   -9.6399   -1.0218  -26.8793 H   0  0  0  0  0  0  0  0  0  0  0  0
  -10.2189    0.9848  -27.8741 H   0  0  0  0  0  0  0  0  0  0  0  0
  -10.1071    3.4968  -26.5765 H   0  0  0  0  0  0  0  0  0  0  0  0
  -11.7510    2.8934  -26.3646 H   0  0  0  0  0  0  0  0  0  0  0  0
  -11.0970    3.1190  -28.0024 H   0  0  0  0  0  0  0  0  0  0  0  0
  1  2  1  0
  2  3  1  0
  3  4  2  0
  3  5  1  0
  5  6  1  0
  6  7  1  0
  8  7  1  6
  8  9  1  0
  9 10  2  0
  9 11  1  0
 11 12  1  0
 12 13  2  0
 13 14  1  0
 14 15  2  0
 15 16  1  0
 16 17  2  0
 17 18  1  0
 18 19  2  0
 19 20  1  0
 20 21  2  0
 20 22  1  0
 19 23  1  0
 18 24  1  0
 17 25  1  0
 15 26  1  0
 13 27  1  0
 11 28  1  0
 28 29  1  0
 29 30  1  0
 30 31  1  0
 31 32  1  0
 32 33  2  0
 33 34  1  0
 34 35  2  0
 35 36  1  0
 36 37  1  0
 37 38  1  0
 37 39  1  0
 37 40  1  0
 36 41  2  0
 34 42  1  0
 33 43  1  0
 31 44  1  0
 30 45  1  0
 30 46  1  0
 29 47  1  1
 28 48  1  0
 28 49  1  0
  8 50  1  0
 50 51  2  0
 51 52  1  0
 52 53  1  0
 52 54  2  0
 54 55  1  0
 55 56  2  0
 56 57  1  0
 57 58  2  0
 55 59  1  0
 54 60  1  0
 51 61  1  0
  7 62  1  0
  7 63  1  0
  5 64  1  0
  5 65  1  0
  2 66  1  0
  1 67  1  0
  1 68  1  0
  1 69  1  0
 57  6  1  0
 29  8  1  0
 41 32  1  0
 56 50  1  0
 21 12  1  0
 21 16  1  0
M  END
>  <cnnaffinities>  (14) 
[6.24457]

>  <score>  (14) 
6.24457

>  <index>  (14) 
13

>  <Smiles>  (14) 
C(N(C(=O)C(N1C([C@@]2(C(=O)N(c3c(nc(c4c(c(c(c(c34)[H])[H])[H])[H])[H])[H])C([C@@]2(C(N(c2c(c(nc(C([H])([H])[H])n2)[H])[H])[H])([H])[H])[H])([H])[H])c2c(c(Cl)c(c(c2C1=O)[H])[H])[H])([H])[H])([H])[H])[H])([H])([H])[H]

>  <h>  (14) 
<NA>

>  <Training>  (14) 
True

>  <Success>  (14) 
True

>  <enamine_searched>  (14) 
False

>  <enamine_id>  (14) 
nan

$$$$

     RDKit          3D

 73 78  0  0  0  0  0  0  0  0999 V2000
   -6.9899   -2.9535  -24.1050 C   0  0  0  0  0  0  0  0  0  0  0  0
   -8.1197   -2.7720  -23.0815 C   0  0  1  0  0  0  0  0  0  0  0  0
   -7.4816   -2.7461  -21.6698 C   0  0  0  0  0  0  0  0  0  0  0  0
   -7.5238   -1.3510  -21.2857 N   0  0  0  0  0  0  0  0  0  0  0  0
   -6.6728   -0.8754  -20.2419 C   0  0  0  0  0  0  0  0  0  0  0  0
   -6.8926   -1.3052  -18.9562 C   0  0  0  0  0  0  0  0  0  0  0  0
   -6.1539   -0.9389  -17.8806 N   0  0  0  0  0  0  0  0  0  0  0  0
   -5.1269   -0.1509  -18.0850 C   0  0  0  0  0  0  0  0  0  0  0  0
   -4.7242    0.2982  -19.3703 C   0  0  0  0  0  0  0  0  0  0  0  0
   -3.5402    1.0645  -19.5486 C   0  0  0  0  0  0  0  0  0  0  0  0
   -3.1538    1.4761  -20.7960 C   0  0  0  0  0  0  0  0  0  0  0  0
   -3.9564    1.1604  -21.9141 C   0  0  0  0  0  0  0  0  0  0  0  0
   -5.1048    0.4179  -21.7696 C   0  0  0  0  0  0  0  0  0  0  0  0
   -5.5229   -0.0472  -20.4893 C   0  0  0  0  0  0  0  0  0  0  0  0
   -5.7236    0.1858  -22.6308 H   0  0  0  0  0  0  0  0  0  0  0  0
   -3.6723    1.5269  -22.8967 H   0  0  0  0  0  0  0  0  0  0  0  0
   -2.2507    2.0693  -20.9197 H   0  0  0  0  0  0  0  0  0  0  0  0
   -2.9652    1.3174  -18.6624 H   0  0  0  0  0  0  0  0  0  0  0  0
   -4.5476    0.1627  -17.2135 H   0  0  0  0  0  0  0  0  0  0  0  0
   -7.7302   -1.9678  -18.7389 H   0  0  0  0  0  0  0  0  0  0  0  0
   -8.2750   -0.5704  -22.1337 C   0  0  0  0  0  0  0  0  0  0  0  0
   -8.3723    0.6406  -22.0456 O   0  0  0  0  0  0  0  0  0  0  0  0
   -8.9300   -1.4336  -23.2370 C   0  0  1  0  0  0  0  0  0  0  0  0
   -8.7602   -0.7890  -24.6461 C   0  0  0  0  0  0  0  0  0  0  0  0
   -9.6944    0.2875  -24.9306 N   0  0  0  0  0  0  0  0  0  0  0  0
   -9.2917    1.5157  -25.6042 C   0  0  0  0  0  0  0  0  0  0  0  0
   -9.3171    2.6931  -24.6229 C   0  0  0  0  0  0  0  0  0  0  0  0
   -8.0719    2.7212  -23.8068 N   0  0  0  0  0  4  0  0  0  0  0  0
   -8.2153    3.5059  -22.5427 C   0  0  0  0  0  0  0  0  0  0  0  0
   -6.8877    3.6277  -21.7962 C   0  0  0  0  0  0  0  0  0  0  0  0
   -5.7913    4.0086  -22.6980 N   0  0  0  0  0  0  0  0  0  0  0  0
   -4.4675    4.7797  -22.0573 S   0  0  0  0  0  0  0  0  0  0  0  0
   -3.4175    4.6743  -23.0534 O   0  0  0  0  0  0  0  0  0  0  0  0
   -4.2865    4.3035  -20.6970 O   0  0  0  0  0  0  0  0  0  0  0  0
   -4.9594    6.5020  -21.9652 C   0  0  0  0  0  0  0  0  0  0  0  0
   -4.1989    7.0392  -21.3894 H   0  0  0  0  0  0  0  0  0  0  0  0
   -5.9288    6.5802  -21.4591 H   0  0  0  0  0  0  0  0  0  0  0  0
   -4.9967    6.9038  -22.9844 H   0  0  0  0  0  0  0  0  0  0  0  0
   -6.2146    4.3877  -24.0420 C   0  0  0  0  0  0  0  0  0  0  0  0
   -6.9058    3.1789  -24.6532 C   0  0  0  0  0  0  0  0  0  0  0  0
   -6.2008    2.3437  -24.7549 H   0  0  0  0  0  0  0  0  0  0  0  0
   -7.2789    3.4329  -25.6487 H   0  0  0  0  0  0  0  0  0  0  0  0
   -6.8943    5.2576  -24.0056 H   0  0  0  0  0  0  0  0  0  0  0  0
   -5.3385    4.6476  -24.6347 H   0  0  0  0  0  0  0  0  0  0  0  0
   -6.9964    4.3931  -21.0266 H   0  0  0  0  0  0  0  0  0  0  0  0
   -6.6036    2.6898  -21.2990 H   0  0  0  0  0  0  0  0  0  0  0  0
   -8.6139    4.5076  -22.7544 H   0  0  0  0  0  0  0  0  0  0  0  0
   -8.9516    2.9919  -21.9258 H   0  0  0  0  0  0  0  0  0  0  0  0
   -7.9158    1.7546  -23.4741 H   0  0  0  0  0  0  0  0  0  0  0  0
  -10.1821    2.5938  -23.9592 H   0  0  0  0  0  0  0  0  0  0  0  0
   -9.4340    3.6424  -25.1604 H   0  0  0  0  0  0  0  0  0  0  0  0
   -9.9835    1.6926  -26.4321 H   0  0  0  0  0  0  0  0  0  0  0  0
   -8.2920    1.3694  -26.0347 H   0  0  0  0  0  0  0  0  0  0  0  0
  -11.0182    0.1854  -24.6382 C   0  0  0  0  0  0  0  0  0  0  0  0
  -11.8329    1.0448  -24.9641 O   0  0  0  0  0  0  0  0  0  0  0  0
  -11.3917   -0.9955  -23.8229 C   0  0  0  0  0  0  0  0  0  0  0  0
  -12.7356   -1.3400  -23.7713 C   0  0  0  0  0  0  0  0  0  0  0  0
  -13.1725   -2.2405  -22.8317 C   0  0  0  0  0  0  0  0  0  0  0  0
  -12.2624   -2.7159  -21.8902 C   0  0  0  0  0  0  0  0  0  0  0  0
  -12.9442   -3.6684  -20.6121 Cl  0  0  0  0  0  0  0  0  0  0  0  0
  -10.9074   -2.4251  -21.9638 C   0  0  0  0  0  0  0  0  0  0  0  0
  -10.4358   -1.6209  -23.0090 C   0  0  0  0  0  0  0  0  0  0  0  0
  -10.2066   -2.7890  -21.2192 H   0  0  0  0  0  0  0  0  0  0  0  0
  -14.2119   -2.5385  -22.7640 H   0  0  0  0  0  0  0  0  0  0  0  0
  -13.4340   -0.8573  -24.4476 H   0  0  0  0  0  0  0  0  0  0  0  0
   -8.9060   -1.5891  -25.3852 H   0  0  0  0  0  0  0  0  0  0  0  0
   -7.7522   -0.3800  -24.7601 H   0  0  0  0  0  0  0  0  0  0  0  0
   -6.4371   -3.0902  -21.6979 H   0  0  0  0  0  0  0  0  0  0  0  0
   -8.0036   -3.3927  -20.9536 H   0  0  0  0  0  0  0  0  0  0  0  0
   -8.8165   -3.6119  -23.1711 H   0  0  0  0  0  0  0  0  0  0  0  0
   -7.3588   -3.0524  -25.1285 H   0  0  0  0  0  0  0  0  0  0  0  0
   -6.4184   -3.8574  -23.8708 H   0  0  0  0  0  0  0  0  0  0  0  0
   -6.2912   -2.1074  -24.0712 H   0  0  0  0  0  0  0  0  0  0  0  0
  1  2  1  0
  2  3  1  0
  3  4  1  0
  4  5  1  0
  5  6  2  0
  6  7  1  0
  7  8  2  0
  8  9  1  0
  9 10  2  0
 10 11  1  0
 11 12  2  0
 12 13  1  0
 13 14  2  0
 13 15  1  0
 12 16  1  0
 11 17  1  0
 10 18  1  0
  8 19  1  0
  6 20  1  0
  4 21  1  0
 21 22  2  0
 21 23  1  0
 23 24  1  6
 24 25  1  0
 25 26  1  0
 26 27  1  0
 27 28  1  0
 28 29  1  0
 29 30  1  0
 30 31  1  0
 31 32  1  0
 32 33  2  0
 32 34  2  0
 32 35  1  0
 35 36  1  0
 35 37  1  0
 35 38  1  0
 31 39  1  0
 39 40  1  0
 40 41  1  0
 40 42  1  0
 39 43  1  0
 39 44  1  0
 30 45  1  0
 30 46  1  0
 29 47  1  0
 29 48  1  0
 28 49  1  0
 27 50  1  0
 27 51  1  0
 26 52  1  0
 26 53  1  0
 25 54  1  0
 54 55  2  0
 54 56  1  0
 56 57  2  0
 57 58  1  0
 58 59  2  0
 59 60  1  0
 59 61  1  0
 61 62  2  0
 61 63  1  0
 58 64  1  0
 57 65  1  0
 24 66  1  0
 24 67  1  0
  3 68  1  0
  3 69  1  0
  2 70  1  1
  1 71  1  0
  1 72  1  0
  1 73  1  0
 23  2  1  0
 40 28  1  0
 62 56  1  0
 14  5  1  0
 62 23  1  0
 14  9  1  0
M  CHG  1  28   1
M  END
>  <cnnaffinities>  (15) 
[6.01733]

>  <score>  (15) 
6.01733

>  <index>  (15) 
14

>  <Smiles>  (15) 
C([C@]1(C(N(c2c(nc(c3c(c(c(c(c23)[H])[H])[H])[H])[H])[H])C(=O)[C@]21C(N(C(C([N+]1(C(C(N(S(=O)(=O)C([H])([H])[H])C(C1([H])[H])([H])[H])([H])[H])([H])[H])[H])([H])[H])([H])[H])C(=O)c1c(c(c(Cl)c(c21)[H])[H])[H])([H])[H])([H])[H])[H])([H])([H])[H]

>  <h>  (15) 
<NA>

>  <Training>  (15) 
True

>  <Success>  (15) 
True

>  <enamine_searched>  (15) 
False

>  <enamine_id>  (15) 
nan

$$$$

     RDKit          3D

 63 68  0  0  0  0  0  0  0  0999 V2000
   -7.4669    3.3522  -21.7951 C   0  0  0  0  0  0  0  0  0  0  0  0
   -8.3855    2.8653  -22.8076 N   0  0  0  0  0  0  0  0  0  0  0  0
   -7.8593    2.1668  -23.8515 C   0  0  0  0  0  0  0  0  0  0  0  0
   -6.6546    2.0331  -24.0077 O   0  0  0  0  0  0  0  0  0  0  0  0
   -8.8666    1.5683  -24.8251 C   0  0  0  0  0  0  0  0  0  0  0  0
   -9.5147    0.3962  -24.2871 N   0  0  0  0  0  0  0  0  0  0  0  0
   -8.7468   -0.8253  -24.1547 C   0  0  0  0  0  0  0  0  0  0  0  0
   -9.0925   -1.5762  -22.8514 C   0  0  2  0  0  0  0  0  0  0  0  0
   -8.5681   -0.7875  -21.6327 C   0  0  0  0  0  0  0  0  0  0  0  0
   -9.0694    0.1805  -21.1004 O   0  0  0  0  0  0  0  0  0  0  0  0
   -7.3909   -1.3684  -21.2396 N   0  0  0  0  0  0  0  0  0  0  0  0
   -6.6097   -0.8348  -20.2003 C   0  0  0  0  0  0  0  0  0  0  0  0
   -6.9286   -1.1199  -18.8988 C   0  0  0  0  0  0  0  0  0  0  0  0
   -6.1577   -0.7784  -17.8439 N   0  0  0  0  0  0  0  0  0  0  0  0
   -5.0895   -0.0552  -18.0939 C   0  0  0  0  0  0  0  0  0  0  0  0
   -4.7140    0.4037  -19.3915 C   0  0  0  0  0  0  0  0  0  0  0  0
   -3.6214    1.2834  -19.6130 C   0  0  0  0  0  0  0  0  0  0  0  0
   -3.2605    1.6355  -20.8860 C   0  0  0  0  0  0  0  0  0  0  0  0
   -3.9802    1.1464  -21.9999 C   0  0  0  0  0  0  0  0  0  0  0  0
   -5.0712    0.3334  -21.8105 C   0  0  0  0  0  0  0  0  0  0  0  0
   -5.4696   -0.0365  -20.4968 C   0  0  0  0  0  0  0  0  0  0  0  0
   -5.6353   -0.0155  -22.6703 H   0  0  0  0  0  0  0  0  0  0  0  0
   -3.6734    1.4105  -23.0063 H   0  0  0  0  0  0  0  0  0  0  0  0
   -2.4112    2.2911  -21.0535 H   0  0  0  0  0  0  0  0  0  0  0  0
   -3.0970    1.6882  -18.7532 H   0  0  0  0  0  0  0  0  0  0  0  0
   -4.4550    0.2062  -17.2502 H   0  0  0  0  0  0  0  0  0  0  0  0
   -7.8532   -1.6524  -18.6853 H   0  0  0  0  0  0  0  0  0  0  0  0
   -7.0276   -2.5678  -21.9512 C   0  0  0  0  0  0  0  0  0  0  0  0
   -8.3039   -2.9130  -22.7285 C   0  0  2  0  0  0  0  0  0  0  0  0
   -7.9962   -3.6678  -24.0282 C   0  0  0  0  0  0  0  0  0  0  0  0
   -7.4256   -4.9780  -23.7948 N   0  0  0  0  0  0  0  0  0  0  0  0
   -8.0891   -6.1197  -23.5141 C   0  0  0  0  0  0  0  0  0  0  0  0
   -7.1380   -7.0905  -23.2942 C   0  0  0  0  0  0  0  0  0  0  0  0
   -5.9102   -6.4174  -23.4709 C   0  0  0  0  0  0  0  0  0  0  0  0
   -6.0974   -5.1335  -23.7573 N   0  0  0  0  0  0  0  0  0  0  0  0
   -4.8977   -6.8004  -23.4038 H   0  0  0  0  0  0  0  0  0  0  0  0
   -7.3085   -8.1278  -23.0392 H   0  0  0  0  0  0  0  0  0  0  0  0
   -9.1719   -6.1447  -23.5314 H   0  0  0  0  0  0  0  0  0  0  0  0
   -7.2540   -3.1263  -24.6166 H   0  0  0  0  0  0  0  0  0  0  0  0
   -8.8972   -3.7946  -24.6332 H   0  0  0  0  0  0  0  0  0  0  0  0
   -8.9097   -3.5751  -22.1097 H   0  0  0  0  0  0  0  0  0  0  0  0
   -6.1729   -2.4020  -22.6238 H   0  0  0  0  0  0  0  0  0  0  0  0
   -6.7358   -3.3480  -21.2443 H   0  0  0  0  0  0  0  0  0  0  0  0
  -10.5986   -1.6818  -22.7633 C   0  0  0  0  0  0  0  0  0  0  0  0
  -11.1979   -2.6026  -21.8996 C   0  0  0  0  0  0  0  0  0  0  0  0
  -12.5750   -2.6110  -21.7589 C   0  0  0  0  0  0  0  0  0  0  0  0
  -13.3010   -3.6503  -20.5701 Cl  0  0  0  0  0  0  0  0  0  0  0  0
  -13.4068   -1.7652  -22.4931 C   0  0  0  0  0  0  0  0  0  0  0  0
  -12.8169   -0.8274  -23.3119 C   0  0  0  0  0  0  0  0  0  0  0  0
  -11.4309   -0.7595  -23.4109 C   0  0  0  0  0  0  0  0  0  0  0  0
  -10.8728    0.4014  -24.1634 C   0  0  0  0  0  0  0  0  0  0  0  0
  -11.5764    1.3005  -24.5990 O   0  0  0  0  0  0  0  0  0  0  0  0
  -13.3953   -0.0975  -23.8639 H   0  0  0  0  0  0  0  0  0  0  0  0
  -14.4839   -1.8401  -22.3821 H   0  0  0  0  0  0  0  0  0  0  0  0
  -10.5963   -3.3003  -21.3234 H   0  0  0  0  0  0  0  0  0  0  0  0
   -8.9582   -1.4861  -25.0034 H   0  0  0  0  0  0  0  0  0  0  0  0
   -7.6869   -0.5602  -24.1810 H   0  0  0  0  0  0  0  0  0  0  0  0
   -9.6653    2.2769  -25.0594 H   0  0  0  0  0  0  0  0  0  0  0  0
   -8.3111    1.3163  -25.7289 H   0  0  0  0  0  0  0  0  0  0  0  0
   -9.3341    2.6693  -22.5108 H   0  0  0  0  0  0  0  0  0  0  0  0
   -6.9699    2.5268  -21.2619 H   0  0  0  0  0  0  0  0  0  0  0  0
   -7.9793    4.0095  -21.0917 H   0  0  0  0  0  0  0  0  0  0  0  0
   -6.6855    3.9387  -22.2796 H   0  0  0  0  0  0  0  0  0  0  0  0
  1  2  1  0
  2  3  1  0
  3  4  2  0
  3  5  1  0
  5  6  1  0
  6  7  1  0
  8  7  1  6
  8  9  1  0
  9 10  2  0
  9 11  1  0
 11 12  1  0
 12 13  2  0
 13 14  1  0
 14 15  2  0
 15 16  1  0
 16 17  2  0
 17 18  1  0
 18 19  2  0
 19 20  1  0
 20 21  2  0
 20 22  1  0
 19 23  1  0
 18 24  1  0
 17 25  1  0
 15 26  1  0
 13 27  1  0
 11 28  1  0
 28 29  1  0
 29 30  1  0
 30 31  1  0
 31 32  1  0
 32 33  2  0
 33 34  1  0
 34 35  2  0
 34 36  1  0
 33 37  1  0
 32 38  1  0
 30 39  1  0
 30 40  1  0
 29 41  1  1
 28 42  1  0
 28 43  1  0
  8 44  1  0
 44 45  2  0
 45 46  1  0
 46 47  1  0
 46 48  2  0
 48 49  1  0
 49 50  2  0
 50 51  1  0
 51 52  2  0
 49 53  1  0
 48 54  1  0
 45 55  1  0
  7 56  1  0
  7 57  1  0
  5 58  1  0
  5 59  1  0
  2 60  1  0
  1 61  1  0
  1 62  1  0
  1 63  1  0
 51  6  1  0
 29  8  1  0
 35 31  1  0
 50 44  1  0
 21 12  1  0
 21 16  1  0
M  END
>  <cnnaffinities>  (16) 
[6.60258]

>  <score>  (16) 
6.60258

>  <index>  (16) 
15

>  <Smiles>  (16) 
C(N(C(=O)C(N1C([C@@]2(C(=O)N(c3c(nc(c4c(c(c(c(c34)[H])[H])[H])[H])[H])[H])C([C@@]2(C(n2c(c(c(n2)[H])[H])[H])([H])[H])[H])([H])[H])c2c(c(Cl)c(c(c2C1=O)[H])[H])[H])([H])[H])([H])[H])[H])([H])([H])[H]

>  <h>  (16) 
<NA>

>  <Training>  (16) 
True

>  <Success>  (16) 
True

>  <enamine_searched>  (16) 
False

>  <enamine_id>  (16) 
nan

$$$$

     RDKit          3D

 61 66  0  0  0  0  0  0  0  0999 V2000
  -14.5035   -0.3218  -22.9028 C   0  0  0  0  0  0  0  0  0  0  0  0
  -13.6380   -1.3365  -22.3067 N   0  0  0  0  0  0  0  0  0  0  0  0
  -13.3498   -2.4823  -23.0028 C   0  0  0  0  0  0  0  0  0  0  0  0
  -13.6371   -2.5983  -24.1850 O   0  0  0  0  0  0  0  0  0  0  0  0
  -12.6422   -3.6198  -22.2303 C   0  0  0  0  0  0  0  0  0  0  0  0
  -11.2391   -3.8018  -22.6015 N   0  0  0  0  0  0  0  0  0  0  0  0
  -10.1524   -3.3378  -21.7304 C   0  0  0  0  0  0  0  0  0  0  0  0
   -8.8945   -2.8808  -22.5073 C   0  0  2  0  0  0  0  0  0  0  0  0
   -7.7633   -2.7380  -21.4762 C   0  0  0  0  0  0  0  0  0  0  0  0
   -7.1882   -3.6426  -20.8995 O   0  0  0  0  0  0  0  0  0  0  0  0
   -7.4605   -1.4050  -21.2935 N   0  0  0  0  0  0  0  0  0  0  0  0
   -6.5914   -1.0053  -20.2460 C   0  0  0  0  0  0  0  0  0  0  0  0
   -6.8318   -1.4048  -18.9539 C   0  0  0  0  0  0  0  0  0  0  0  0
   -6.0828   -1.0330  -17.8867 N   0  0  0  0  0  0  0  0  0  0  0  0
   -5.0574   -0.2457  -18.1009 C   0  0  0  0  0  0  0  0  0  0  0  0
   -4.6857    0.2336  -19.3874 C   0  0  0  0  0  0  0  0  0  0  0  0
   -3.5785    1.1032  -19.5666 C   0  0  0  0  0  0  0  0  0  0  0  0
   -3.2375    1.5336  -20.8182 C   0  0  0  0  0  0  0  0  0  0  0  0
   -3.9662    1.0914  -21.9446 C   0  0  0  0  0  0  0  0  0  0  0  0
   -5.0428    0.2497  -21.7976 C   0  0  0  0  0  0  0  0  0  0  0  0
   -5.4534   -0.1715  -20.5044 C   0  0  0  0  0  0  0  0  0  0  0  0
   -5.5805   -0.1064  -22.6705 H   0  0  0  0  0  0  0  0  0  0  0  0
   -3.6695    1.4252  -22.9337 H   0  0  0  0  0  0  0  0  0  0  0  0
   -2.4017    2.2135  -20.9573 H   0  0  0  0  0  0  0  0  0  0  0  0
   -3.0220    1.4223  -18.6891 H   0  0  0  0  0  0  0  0  0  0  0  0
   -4.4568    0.0412  -17.2358 H   0  0  0  0  0  0  0  0  0  0  0  0
   -7.6751   -2.0557  -18.7293 H   0  0  0  0  0  0  0  0  0  0  0  0
   -8.3951   -0.5201  -21.9768 C   0  0  0  0  0  0  0  0  0  0  0  0
   -8.9950   -1.4205  -23.0720 C   0  0  2  0  0  0  0  0  0  0  0  0
  -10.4090   -1.0095  -23.5089 C   0  0  0  0  0  0  0  0  0  0  0  0
  -10.4796    0.2882  -24.1546 N   0  0  0  0  0  0  0  0  0  0  0  0
  -10.7014    1.4121  -23.4947 N   0  0  0  0  0  0  0  0  0  0  0  0
  -10.7487    2.2861  -24.4881 C   0  0  0  0  0  0  0  0  0  0  0  0
  -10.5678    1.7099  -25.6953 N   0  0  0  0  0  0  0  0  0  0  0  0
  -10.3991    0.4377  -25.4579 N   0  0  0  0  0  0  0  0  0  0  0  0
  -10.9018    3.3439  -24.3390 H   0  0  0  0  0  0  0  0  0  0  0  0
  -11.0819   -0.9419  -22.6577 H   0  0  0  0  0  0  0  0  0  0  0  0
  -10.8030   -1.7381  -24.2186 H   0  0  0  0  0  0  0  0  0  0  0  0
   -8.3367   -1.3758  -23.9483 H   0  0  0  0  0  0  0  0  0  0  0  0
   -9.1645   -0.1534  -21.2799 H   0  0  0  0  0  0  0  0  0  0  0  0
   -7.8784    0.3489  -22.3907 H   0  0  0  0  0  0  0  0  0  0  0  0
   -8.5727   -3.9363  -23.5486 C   0  0  0  0  0  0  0  0  0  0  0  0
   -7.2600   -4.0963  -24.0170 C   0  0  0  0  0  0  0  0  0  0  0  0
   -6.9646   -5.0850  -24.9412 C   0  0  0  0  0  0  0  0  0  0  0  0
   -5.3367   -5.2644  -25.5320 Cl  0  0  0  0  0  0  0  0  0  0  0  0
   -7.9478   -5.9457  -25.4268 C   0  0  0  0  0  0  0  0  0  0  0  0
   -9.2499   -5.7591  -25.0033 C   0  0  0  0  0  0  0  0  0  0  0  0
   -9.5639   -4.7751  -24.0677 C   0  0  0  0  0  0  0  0  0  0  0  0
  -10.9935   -4.6413  -23.6615 C   0  0  0  0  0  0  0  0  0  0  0  0
  -11.8810   -5.2343  -24.2574 O   0  0  0  0  0  0  0  0  0  0  0  0
  -10.0572   -6.3820  -25.3731 H   0  0  0  0  0  0  0  0  0  0  0  0
   -7.6869   -6.7432  -26.1173 H   0  0  0  0  0  0  0  0  0  0  0  0
   -6.4518   -3.4797  -23.6372 H   0  0  0  0  0  0  0  0  0  0  0  0
  -10.5093   -2.4895  -21.1367 H   0  0  0  0  0  0  0  0  0  0  0  0
   -9.8255   -4.1311  -21.0433 H   0  0  0  0  0  0  0  0  0  0  0  0
  -13.1782   -4.5289  -22.5273 H   0  0  0  0  0  0  0  0  0  0  0  0
  -12.7237   -3.5143  -21.1419 H   0  0  0  0  0  0  0  0  0  0  0  0
  -13.5385   -1.3352  -21.2999 H   0  0  0  0  0  0  0  0  0  0  0  0
  -15.5638   -0.5731  -22.7701 H   0  0  0  0  0  0  0  0  0  0  0  0
  -14.2938    0.6502  -22.4475 H   0  0  0  0  0  0  0  0  0  0  0  0
  -14.2956   -0.2615  -23.9758 H   0  0  0  0  0  0  0  0  0  0  0  0
  1  2  1  0
  2  3  1  0
  3  4  2  0
  3  5  1  0
  5  6  1  0
  6  7  1  0
  8  7  1  1
  8  9  1  0
  9 10  2  0
  9 11  1  0
 11 12  1  0
 12 13  2  0
 13 14  1  0
 14 15  2  0
 15 16  1  0
 16 17  2  0
 17 18  1  0
 18 19  2  0
 19 20  1  0
 20 21  2  0
 20 22  1  0
 19 23  1  0
 18 24  1  0
 17 25  1  0
 15 26  1  0
 13 27  1  0
 11 28  1  0
 28 29  1  0
 29 30  1  0
 30 31  1  0
 31 32  1  0
 32 33  2  0
 33 34  1  0
 34 35  2  0
 33 36  1  0
 30 37  1  0
 30 38  1  0
 29 39  1  6
 28 40  1  0
 28 41  1  0
  8 42  1  0
 42 43  2  0
 43 44  1  0
 44 45  1  0
 44 46  2  0
 46 47  1  0
 47 48  2  0
 48 49  1  0
 49 50  2  0
 47 51  1  0
 46 52  1  0
 43 53  1  0
  7 54  1  0
  7 55  1  0
  5 56  1  0
  5 57  1  0
  2 58  1  0
  1 59  1  0
  1 60  1  0
  1 61  1  0
 49  6  1  0
 29  8  1  0
 35 31  1  0
 48 42  1  0
 21 12  1  0
 21 16  1  0
M  END
>  <cnnaffinities>  (17) 
[6.87212, 6.49406, 6.38241]

>  <score>  (17) 
6.87212

>  <index>  (17) 
16

>  <Smiles>  (17) 
C(N(C(=O)C(N1C([C@@]2(C(=O)N(c3c(nc(c4c(c(c(c(c34)[H])[H])[H])[H])[H])[H])C([C@@]2(C(n2nc(nn2)[H])([H])[H])[H])([H])[H])c2c(c(Cl)c(c(c2C1=O)[H])[H])[H])([H])[H])([H])[H])[H])([H])([H])[H]

>  <h>  (17) 
<NA>

>  <Training>  (17) 
True

>  <Success>  (17) 
True

>  <enamine_searched>  (17) 
False

>  <enamine_id>  (17) 
nan

$$$$

     RDKit          3D

 38 41  0  0  0  0  0  0  0  0999 V2000
  -11.8788   -3.4248  -24.6622 C   0  0  0  0  0  0  0  0  0  0  0  0
  -10.4607   -2.9769  -24.2906 C   0  0  2  0  0  0  0  0  0  0  0  0
   -9.4876   -4.1673  -24.3120 C   0  0  0  0  0  0  0  0  0  0  0  0
   -8.0392   -3.7267  -24.0441 C   0  0  0  0  0  0  0  0  0  0  0  0
   -7.9869   -2.8337  -22.8837 C   0  0  0  0  0  0  0  0  0  0  0  0
   -6.8461   -2.4387  -22.1132 C   0  0  0  0  0  0  0  0  0  0  0  0
   -5.6916   -2.8065  -22.1817 O   0  0  0  0  0  1  0  0  0  0  0  0
   -7.3540   -1.4504  -21.2278 N   0  0  0  0  0  0  0  0  0  0  0  0
   -6.6051   -0.8357  -20.1978 C   0  0  0  0  0  0  0  0  0  0  0  0
   -6.9308   -1.0855  -18.8891 C   0  0  0  0  0  0  0  0  0  0  0  0
   -6.1806   -0.6821  -17.8386 N   0  0  0  0  0  0  0  0  0  0  0  0
   -5.1069    0.0285  -18.0893 C   0  0  0  0  0  0  0  0  0  0  0  0
   -4.7179    0.4606  -19.3940 C   0  0  0  0  0  0  0  0  0  0  0  0
   -3.6115    1.3314  -19.6204 C   0  0  0  0  0  0  0  0  0  0  0  0
   -3.2368    1.6653  -20.8961 C   0  0  0  0  0  0  0  0  0  0  0  0
   -3.9630    1.1664  -21.9998 C   0  0  0  0  0  0  0  0  0  0  0  0
   -5.0611    0.3642  -21.8057 C   0  0  0  0  0  0  0  0  0  0  0  0
   -5.4708   -0.0110  -20.4931 C   0  0  0  0  0  0  0  0  0  0  0  0
   -5.6143   -0.0093  -22.6609 H   0  0  0  0  0  0  0  0  0  0  0  0
   -3.6435    1.4164  -23.0098 H   0  0  0  0  0  0  0  0  0  0  0  0
   -2.3738    2.3054  -21.0725 H   0  0  0  0  0  0  0  0  0  0  0  0
   -3.0827    1.7358  -18.7614 H   0  0  0  0  0  0  0  0  0  0  0  0
   -4.4924    0.2814  -17.2226 H   0  0  0  0  0  0  0  0  0  0  0  0
   -7.8082   -1.6786  -18.6371 H   0  0  0  0  0  0  0  0  0  0  0  0
   -8.6981   -1.1808  -21.4992 C   0  0  0  0  0  0  0  0  0  0  0  0
   -9.3819   -0.3063  -21.0231 O   0  0  0  0  0  0  0  0  0  0  0  0
   -9.0575   -2.1192  -22.4567 N   0  0  0  0  0  0  0  0  0  0  0  0
  -10.4328   -2.3159  -22.9038 C   0  0  0  0  0  0  0  0  0  0  0  0
  -10.8946   -1.3243  -22.9134 H   0  0  0  0  0  0  0  0  0  0  0  0
  -10.9730   -2.9401  -22.1712 H   0  0  0  0  0  0  0  0  0  0  0  0
   -7.6319   -3.2170  -24.9337 H   0  0  0  0  0  0  0  0  0  0  0  0
   -7.3828   -4.5824  -23.8556 H   0  0  0  0  0  0  0  0  0  0  0  0
   -9.8092   -4.8853  -23.5396 H   0  0  0  0  0  0  0  0  0  0  0  0
   -9.5604   -4.6751  -25.2840 H   0  0  0  0  0  0  0  0  0  0  0  0
  -10.1166   -2.2300  -25.0255 H   0  0  0  0  0  0  0  0  0  0  0  0
  -12.2504   -4.1871  -23.9607 H   0  0  0  0  0  0  0  0  0  0  0  0
  -12.5878   -2.5869  -24.6617 H   0  0  0  0  0  0  0  0  0  0  0  0
  -11.8865   -3.8696  -25.6641 H   0  0  0  0  0  0  0  0  0  0  0  0
  1  2  1  0
  2  3  1  0
  3  4  1  0
  4  5  1  0
  5  6  2  0
  6  7  1  0
  6  8  1  0
  8  9  1  0
  9 10  2  0
 10 11  1  0
 11 12  2  0
 12 13  1  0
 13 14  2  0
 14 15  1  0
 15 16  2  0
 16 17  1  0
 17 18  2  0
 17 19  1  0
 16 20  1  0
 15 21  1  0
 14 22  1  0
 12 23  1  0
 10 24  1  0
  8 25  1  0
 25 26  2  0
 25 27  1  0
 27 28  1  0
 28 29  1  0
 28 30  1  0
  4 31  1  0
  4 32  1  0
  3 33  1  0
  3 34  1  0
  2 35  1  6
  1 36  1  0
  1 37  1  0
  1 38  1  0
 28  2  1  0
 27  5  1  0
 18  9  1  0
 18 13  1  0
M  CHG  1   7  -1
M  END
>  <cnnaffinities>  (18) 
[5.21241, 5.31886]

>  <score>  (18) 
5.21241

>  <index>  (18) 
17

>  <Smiles>  (18) 
C([C@@]1(C(C(c2c([O-])n(c3c(nc(c4c(c(c(c(c34)[H])[H])[H])[H])[H])[H])c(=O)n2C1([H])[H])([H])[H])([H])[H])[H])([H])([H])[H]

>  <h>  (18) 
<NA>

>  <Training>  (18) 
True

>  <Success>  (18) 
True

>  <enamine_searched>  (18) 
False

>  <enamine_id>  (18) 
nan

$$$$

     RDKit          3D

 56 61  0  0  0  0  0  0  0  0999 V2000
  -10.4205   -0.9856  -23.4078 C   0  0  0  0  0  0  0  0  0  0  0  0
   -9.0063   -1.4025  -23.0196 C   0  0  1  0  0  0  0  0  0  0  0  0
   -8.3837   -0.5074  -21.9359 C   0  0  0  0  0  0  0  0  0  0  0  0
   -7.4089   -1.3854  -21.2998 N   0  0  0  0  0  0  0  0  0  0  0  0
   -6.5681   -0.9763  -20.2403 C   0  0  0  0  0  0  0  0  0  0  0  0
   -6.8532   -1.3310  -18.9470 C   0  0  0  0  0  0  0  0  0  0  0  0
   -6.1045   -0.9648  -17.8792 N   0  0  0  0  0  0  0  0  0  0  0  0
   -5.0598   -0.2036  -18.1014 C   0  0  0  0  0  0  0  0  0  0  0  0
   -4.6786    0.2741  -19.3884 C   0  0  0  0  0  0  0  0  0  0  0  0
   -3.5851    1.1601  -19.5798 C   0  0  0  0  0  0  0  0  0  0  0  0
   -3.2359    1.5612  -20.8400 C   0  0  0  0  0  0  0  0  0  0  0  0
   -3.9471    1.0844  -21.9657 C   0  0  0  0  0  0  0  0  0  0  0  0
   -5.0221    0.2457  -21.8034 C   0  0  0  0  0  0  0  0  0  0  0  0
   -5.4334   -0.1492  -20.5040 C   0  0  0  0  0  0  0  0  0  0  0  0
   -5.5683   -0.1303  -22.6625 H   0  0  0  0  0  0  0  0  0  0  0  0
   -3.6376    1.3849  -22.9623 H   0  0  0  0  0  0  0  0  0  0  0  0
   -2.4040    2.2443  -20.9886 H   0  0  0  0  0  0  0  0  0  0  0  0
   -3.0517    1.5185  -18.7020 H   0  0  0  0  0  0  0  0  0  0  0  0
   -4.4492    0.0582  -17.2374 H   0  0  0  0  0  0  0  0  0  0  0  0
   -7.7253   -1.9450  -18.7272 H   0  0  0  0  0  0  0  0  0  0  0  0
   -7.7017   -2.7213  -21.4711 C   0  0  0  0  0  0  0  0  0  0  0  0
   -7.1199   -3.6289  -20.9090 O   0  0  0  0  0  0  0  0  0  0  0  0
   -8.8592   -2.8613  -22.4610 C   0  0  1  0  0  0  0  0  0  0  0  0
  -10.0844   -3.3103  -21.6272 C   0  0  0  0  0  0  0  0  0  0  0  0
  -11.1825   -3.8033  -22.4393 N   0  0  0  0  0  0  0  0  0  0  0  0
  -12.5519   -3.7160  -21.9533 C   0  0  0  0  0  0  0  0  0  0  0  0
  -13.3638   -2.5832  -22.4934 C   0  0  0  0  0  0  0  0  0  0  0  0
  -13.9964   -2.4792  -23.7556 C   0  0  0  0  0  0  0  0  0  0  0  0
  -14.7109   -1.3104  -23.6784 C   0  0  0  0  0  0  0  0  0  0  0  0
  -14.4850   -0.8013  -22.4453 N   0  0  0  0  0  0  0  0  0  0  0  0
  -13.6614   -1.5557  -21.7088 N   0  0  0  0  0  0  0  0  0  0  0  0
  -14.8909    0.0009  -21.9996 H   0  0  0  0  0  0  0  0  0  0  0  0
  -15.3321   -0.8138  -24.3998 H   0  0  0  0  0  0  0  0  0  0  0  0
  -13.9640   -3.1806  -24.5798 H   0  0  0  0  0  0  0  0  0  0  0  0
  -13.0446   -4.6385  -22.2733 H   0  0  0  0  0  0  0  0  0  0  0  0
  -12.5352   -3.6310  -20.8628 H   0  0  0  0  0  0  0  0  0  0  0  0
  -10.9986   -4.4829  -23.6125 C   0  0  0  0  0  0  0  0  0  0  0  0
  -11.9482   -4.8548  -24.2936 O   0  0  0  0  0  0  0  0  0  0  0  0
   -9.5819   -4.7151  -24.0279 C   0  0  0  0  0  0  0  0  0  0  0  0
   -9.3003   -5.7333  -24.9421 C   0  0  0  0  0  0  0  0  0  0  0  0
   -8.0158   -5.9309  -25.4157 C   0  0  0  0  0  0  0  0  0  0  0  0
   -7.0185   -5.0783  -24.9551 C   0  0  0  0  0  0  0  0  0  0  0  0
   -5.7715   -5.2348  -25.4275 F   0  0  0  0  0  0  0  0  0  0  0  0
   -7.2570   -4.0987  -24.0090 C   0  0  0  0  0  0  0  0  0  0  0  0
   -8.5565   -3.9130  -23.5150 C   0  0  0  0  0  0  0  0  0  0  0  0
   -6.4187   -3.5325  -23.6173 H   0  0  0  0  0  0  0  0  0  0  0  0
   -7.7705   -6.7347  -26.1052 H   0  0  0  0  0  0  0  0  0  0  0  0
  -10.1108   -6.3795  -25.2676 H   0  0  0  0  0  0  0  0  0  0  0  0
   -9.7475   -4.0765  -20.9206 H   0  0  0  0  0  0  0  0  0  0  0  0
  -10.4576   -2.4649  -21.0370 H   0  0  0  0  0  0  0  0  0  0  0  0
   -9.1398   -0.1610  -21.2117 H   0  0  0  0  0  0  0  0  0  0  0  0
   -7.9042    0.3844  -22.3490 H   0  0  0  0  0  0  0  0  0  0  0  0
   -8.3568   -1.3630  -23.9038 H   0  0  0  0  0  0  0  0  0  0  0  0
  -10.8610   -1.7168  -24.0907 H   0  0  0  0  0  0  0  0  0  0  0  0
  -11.0702   -0.9237  -22.5291 H   0  0  0  0  0  0  0  0  0  0  0  0
  -10.4328   -0.0086  -23.8973 H   0  0  0  0  0  0  0  0  0  0  0  0
  1  2  1  0
  2  3  1  0
  3  4  1  0
  4  5  1  0
  5  6  2  0
  6  7  1  0
  7  8  2  0
  8  9  1  0
  9 10  2  0
 10 11  1  0
 11 12  2  0
 12 13  1  0
 13 14  2  0
 13 15  1  0
 12 16  1  0
 11 17  1  0
 10 18  1  0
  8 19  1  0
  6 20  1  0
  4 21  1  0
 21 22  2  0
 21 23  1  0
 23 24  1  1
 24 25  1  0
 25 26  1  0
 26 27  1  0
 27 28  1  0
 28 29  2  0
 29 30  1  0
 30 31  1  0
 30 32  1  0
 29 33  1  0
 28 34  1  0
 26 35  1  0
 26 36  1  0
 25 37  1  0
 37 38  2  0
 37 39  1  0
 39 40  2  0
 40 41  1  0
 41 42  2  0
 42 43  1  0
 42 44  1  0
 44 45  2  0
 44 46  1  0
 41 47  1  0
 40 48  1  0
 24 49  1  0
 24 50  1  0
  3 51  1  0
  3 52  1  0
  2 53  1  6
  1 54  1  0
  1 55  1  0
  1 56  1  0
 23  2  1  0
 31 27  2  0
 45 39  1  0
 14  5  1  0
 45 23  1  0
 14  9  1  0
M  END
>  <cnnaffinities>  (19) 
[6.81118]

>  <score>  (19) 
6.81118

>  <index>  (19) 
18

>  <Smiles>  (19) 
C([C@]1(C(N(c2c(nc(c3c(c(c(c(c23)[H])[H])[H])[H])[H])[H])C(=O)[C@]21C(N(C(c1c(c(n(n1)[H])[H])[H])([H])[H])C(=O)c1c(c(c(F)c(c21)[H])[H])[H])([H])[H])([H])[H])[H])([H])([H])[H]

>  <h>  (19) 
<NA>

>  <Training>  (19) 
True

>  <Success>  (19) 
True

>  <enamine_searched>  (19) 
False

>  <enamine_id>  (19) 
nan

$$$$

     RDKit          3D

 42 45  0  0  0  0  0  0  0  0999 V2000
   -9.1310   -0.0239  -20.7458 O   0  0  0  0  0  0  0  0  0  0  0  0
   -8.6613   -0.8829  -21.4666 C   0  0  0  0  0  0  0  0  0  0  0  0
   -9.3726   -1.5026  -22.6792 C   0  0  1  0  0  0  0  0  0  0  0  0
  -10.4357   -0.5592  -23.1954 C   0  0  0  0  0  0  0  0  0  0  0  0
  -10.0918    0.7538  -23.5081 C   0  0  0  0  0  0  0  0  0  0  0  0
  -11.0561    1.6464  -23.9432 C   0  0  0  0  0  0  0  0  0  0  0  0
  -12.3865    1.2549  -24.0403 C   0  0  0  0  0  0  0  0  0  0  0  0
  -13.5623    2.4847  -24.2966 Cl  0  0  0  0  0  0  0  0  0  0  0  0
  -12.7226   -0.0813  -23.8321 C   0  0  0  0  0  0  0  0  0  0  0  0
  -14.3261   -0.6713  -24.1100 Cl  0  0  0  0  0  0  0  0  0  0  0  0
  -11.7449   -0.9763  -23.4008 C   0  0  0  0  0  0  0  0  0  0  0  0
  -12.0421   -2.0015  -23.1985 H   0  0  0  0  0  0  0  0  0  0  0  0
  -10.7878    2.6674  -24.1929 H   0  0  0  0  0  0  0  0  0  0  0  0
   -9.0712    1.0945  -23.3325 H   0  0  0  0  0  0  0  0  0  0  0  0
   -8.3332   -1.7914  -23.7751 C   0  0  0  0  0  0  0  0  0  0  0  0
   -7.2329   -2.7618  -23.3414 C   0  0  2  0  0  0  0  0  0  0  0  0
   -7.5341   -4.1155  -23.6549 O   0  0  0  0  0  0  0  0  0  0  0  0
   -8.3958   -4.3314  -23.2701 H   0  0  0  0  0  0  0  0  0  0  0  0
   -6.9341   -2.6297  -21.8410 C   0  0  0  0  0  0  0  0  0  0  0  0
   -7.3825   -1.3606  -21.2828 N   0  0  0  0  0  0  0  0  0  0  0  0
   -6.6255   -0.8108  -20.2156 C   0  0  0  0  0  0  0  0  0  0  0  0
   -6.9462   -1.0929  -18.9145 C   0  0  0  0  0  0  0  0  0  0  0  0
   -6.1805   -0.7220  -17.8604 N   0  0  0  0  0  0  0  0  0  0  0  0
   -5.1117    0.0008  -18.0973 C   0  0  0  0  0  0  0  0  0  0  0  0
   -4.7134    0.4424  -19.3963 C   0  0  0  0  0  0  0  0  0  0  0  0
   -3.6104    1.3104  -19.6276 C   0  0  0  0  0  0  0  0  0  0  0  0
   -3.2310    1.6287  -20.9049 C   0  0  0  0  0  0  0  0  0  0  0  0
   -3.9427    1.1040  -22.0119 C   0  0  0  0  0  0  0  0  0  0  0  0
   -5.0347    0.3024  -21.8101 C   0  0  0  0  0  0  0  0  0  0  0  0
   -5.4639   -0.0251  -20.4981 C   0  0  0  0  0  0  0  0  0  0  0  0
   -5.5899   -0.0929  -22.6556 H   0  0  0  0  0  0  0  0  0  0  0  0
   -3.6196    1.3496  -23.0194 H   0  0  0  0  0  0  0  0  0  0  0  0
   -2.3754    2.2743  -21.0861 H   0  0  0  0  0  0  0  0  0  0  0  0
   -3.0889    1.7319  -18.7708 H   0  0  0  0  0  0  0  0  0  0  0  0
   -4.5025    0.2637  -17.2306 H   0  0  0  0  0  0  0  0  0  0  0  0
   -7.8368   -1.6676  -18.6607 H   0  0  0  0  0  0  0  0  0  0  0  0
   -7.4118   -3.4931  -21.3421 H   0  0  0  0  0  0  0  0  0  0  0  0
   -5.8593   -2.6747  -21.6534 H   0  0  0  0  0  0  0  0  0  0  0  0
   -6.3286   -2.5525  -23.9284 H   0  0  0  0  0  0  0  0  0  0  0  0
   -7.8893   -0.8319  -24.0750 H   0  0  0  0  0  0  0  0  0  0  0  0
   -8.8239   -2.2100  -24.6600 H   0  0  0  0  0  0  0  0  0  0  0  0
   -9.8319   -2.4501  -22.3531 H   0  0  0  0  0  0  0  0  0  0  0  0
  1  2  2  0
  2  3  1  0
  3  4  1  0
  4  5  2  0
  5  6  1  0
  6  7  2  0
  7  8  1  0
  7  9  1  0
  9 10  1  0
  9 11  2  0
 11 12  1  0
  6 13  1  0
  5 14  1  0
  3 15  1  0
 15 16  1  0
 16 17  1  0
 17 18  1  0
 16 19  1  0
 19 20  1  0
 20 21  1  0
 21 22  2  0
 22 23  1  0
 23 24  2  0
 24 25  1  0
 25 26  2  0
 26 27  1  0
 27 28  2  0
 28 29  1  0
 29 30  2  0
 29 31  1  0
 28 32  1  0
 27 33  1  0
 26 34  1  0
 24 35  1  0
 22 36  1  0
 19 37  1  0
 19 38  1  0
 16 39  1  6
 15 40  1  0
 15 41  1  0
  3 42  1  1
 20  2  1  0
 30 21  1  0
 11  4  1  0
 30 25  1  0
M  END
>  <cnnaffinities>  (20) 
[5.73708, 5.85145]

>  <score>  (20) 
5.73708

>  <index>  (20) 
19

>  <Smiles>  (20) 
O=C1[C@@](c2c(c(c(Cl)c(Cl)c2[H])[H])[H])(C([C@](O[H])(C(N1c1c(nc(c2c(c(c(c(c12)[H])[H])[H])[H])[H])[H])([H])[H])[H])([H])[H])[H]

>  <h>  (20) 
<NA>

>  <Training>  (20) 
True

>  <Success>  (20) 
True

>  <enamine_searched>  (20) 
False

>  <enamine_id>  (20) 
nan

$$$$

     RDKit          3D

 66 71  0  0  0  0  0  0  0  0999 V2000
   -7.4270    3.3664  -21.8183 C   0  0  0  0  0  0  0  0  0  0  0  0
   -8.2981    2.8835  -22.8760 N   0  0  0  0  0  0  0  0  0  0  0  0
   -7.7372    2.1846  -23.9015 C   0  0  0  0  0  0  0  0  0  0  0  0
   -6.5281    2.0486  -24.0263 O   0  0  0  0  0  0  0  0  0  0  0  0
   -8.7222    1.5835  -24.9042 C   0  0  0  0  0  0  0  0  0  0  0  0
   -9.4156    0.4425  -24.3494 N   0  0  0  0  0  0  0  0  0  0  0  0
   -8.6795   -0.7944  -24.1809 C   0  0  0  0  0  0  0  0  0  0  0  0
   -9.0739   -1.5225  -22.8785 C   0  0  2  0  0  0  0  0  0  0  0  0
   -8.5457   -0.7412  -21.6549 C   0  0  0  0  0  0  0  0  0  0  0  0
   -9.0208    0.2515  -21.1466 O   0  0  0  0  0  0  0  0  0  0  0  0
   -7.4044   -1.3677  -21.2279 N   0  0  0  0  0  0  0  0  0  0  0  0
   -6.6086   -0.8375  -20.1962 C   0  0  0  0  0  0  0  0  0  0  0  0
   -6.9253   -1.1171  -18.8957 C   0  0  0  0  0  0  0  0  0  0  0  0
   -6.1573   -0.7711  -17.8396 N   0  0  0  0  0  0  0  0  0  0  0  0
   -5.0914   -0.0465  -18.0921 C   0  0  0  0  0  0  0  0  0  0  0  0
   -4.7123    0.4019  -19.3908 C   0  0  0  0  0  0  0  0  0  0  0  0
   -3.6173    1.2778  -19.6116 C   0  0  0  0  0  0  0  0  0  0  0  0
   -3.2547    1.6251  -20.8838 C   0  0  0  0  0  0  0  0  0  0  0  0
   -3.9732    1.1351  -21.9972 C   0  0  0  0  0  0  0  0  0  0  0  0
   -5.0657    0.3250  -21.8097 C   0  0  0  0  0  0  0  0  0  0  0  0
   -5.4671   -0.0428  -20.4964 C   0  0  0  0  0  0  0  0  0  0  0  0
   -5.6312   -0.0244  -22.6687 H   0  0  0  0  0  0  0  0  0  0  0  0
   -3.6665    1.3990  -23.0032 H   0  0  0  0  0  0  0  0  0  0  0  0
   -2.4031    2.2775  -21.0506 H   0  0  0  0  0  0  0  0  0  0  0  0
   -3.0929    1.6796  -18.7500 H   0  0  0  0  0  0  0  0  0  0  0  0
   -4.4598    0.2270  -17.2495 H   0  0  0  0  0  0  0  0  0  0  0  0
   -7.8514   -1.6452  -18.6824 H   0  0  0  0  0  0  0  0  0  0  0  0
   -7.0583   -2.5679  -21.9480 C   0  0  0  0  0  0  0  0  0  0  0  0
   -8.3292   -2.8868  -22.7420 C   0  0  2  0  0  0  0  0  0  0  0  0
   -8.0310   -3.6806  -24.0281 C   0  0  0  0  0  0  0  0  0  0  0  0
   -7.4755   -5.0664  -23.7696 C   0  0  0  0  0  0  0  0  0  0  0  0
   -8.3411   -6.1353  -23.5286 C   0  0  0  0  0  0  0  0  0  0  0  0
   -7.8504   -7.4110  -23.2691 C   0  0  0  0  0  0  0  0  0  0  0  0
   -6.4807   -7.6361  -23.2204 C   0  0  0  0  0  0  0  0  0  0  0  0
   -5.6054   -6.5846  -23.4659 C   0  0  0  0  0  0  0  0  0  0  0  0
   -6.0992   -5.3128  -23.7436 C   0  0  0  0  0  0  0  0  0  0  0  0
   -5.4004   -4.5032  -23.9498 H   0  0  0  0  0  0  0  0  0  0  0  0
   -4.5339   -6.7620  -23.4534 H   0  0  0  0  0  0  0  0  0  0  0  0
   -6.0975   -8.6259  -22.9892 H   0  0  0  0  0  0  0  0  0  0  0  0
   -8.5412   -8.2349  -23.1150 H   0  0  0  0  0  0  0  0  0  0  0  0
   -9.4167   -5.9665  -23.5519 H   0  0  0  0  0  0  0  0  0  0  0  0
   -8.9518   -3.7604  -24.6191 H   0  0  0  0  0  0  0  0  0  0  0  0
   -7.3181   -3.1115  -24.6365 H   0  0  0  0  0  0  0  0  0  0  0  0
   -8.9601   -3.5207  -22.1171 H   0  0  0  0  0  0  0  0  0  0  0  0
   -6.7961   -3.3695  -21.2514 H   0  0  0  0  0  0  0  0  0  0  0  0
   -6.1939   -2.4133  -22.6132 H   0  0  0  0  0  0  0  0  0  0  0  0
  -10.5824   -1.5879  -22.8165 C   0  0  0  0  0  0  0  0  0  0  0  0
  -11.2152   -2.4948  -21.9630 C   0  0  0  0  0  0  0  0  0  0  0  0
  -12.5945   -2.4969  -21.8662 C   0  0  0  0  0  0  0  0  0  0  0  0
  -13.3542   -3.5830  -20.7418 Cl  0  0  0  0  0  0  0  0  0  0  0  0
  -13.3942   -1.6312  -22.6120 C   0  0  0  0  0  0  0  0  0  0  0  0
  -12.7707   -0.7053  -23.4207 C   0  0  0  0  0  0  0  0  0  0  0  0
  -11.3809   -0.6577  -23.4932 C   0  0  0  0  0  0  0  0  0  0  0  0
  -10.7776    0.4745  -24.2602 C   0  0  0  0  0  0  0  0  0  0  0  0
  -11.4522    1.3736  -24.7375 O   0  0  0  0  0  0  0  0  0  0  0  0
  -13.3328    0.0219  -23.9932 H   0  0  0  0  0  0  0  0  0  0  0  0
  -14.4748   -1.6802  -22.5212 H   0  0  0  0  0  0  0  0  0  0  0  0
  -10.6400   -3.1880  -21.3573 H   0  0  0  0  0  0  0  0  0  0  0  0
   -8.8869   -1.4605  -25.0269 H   0  0  0  0  0  0  0  0  0  0  0  0
   -7.6104   -0.5617  -24.1848 H   0  0  0  0  0  0  0  0  0  0  0  0
   -9.4883    2.3102  -25.1926 H   0  0  0  0  0  0  0  0  0  0  0  0
   -8.1435    1.2893  -25.7837 H   0  0  0  0  0  0  0  0  0  0  0  0
   -9.2651    2.7050  -22.6303 H   0  0  0  0  0  0  0  0  0  0  0  0
   -6.6510    3.9995  -22.2512 H   0  0  0  0  0  0  0  0  0  0  0  0
   -7.9892    3.9860  -21.1175 H   0  0  0  0  0  0  0  0  0  0  0  0
   -6.9308    2.5388  -21.2836 H   0  0  0  0  0  0  0  0  0  0  0  0
  1  2  1  0
  2  3  1  0
  3  4  2  0
  3  5  1  0
  5  6  1  0
  6  7  1  0
  8  7  1  6
  8  9  1  0
  9 10  2  0
  9 11  1  0
 11 12  1  0
 12 13  2  0
 13 14  1  0
 14 15  2  0
 15 16  1  0
 16 17  2  0
 17 18  1  0
 18 19  2  0
 19 20  1  0
 20 21  2  0
 20 22  1  0
 19 23  1  0
 18 24  1  0
 17 25  1  0
 15 26  1  0
 13 27  1  0
 11 28  1  0
 28 29  1  0
 29 30  1  0
 30 31  1  0
 31 32  2  0
 32 33  1  0
 33 34  2  0
 34 35  1  0
 35 36  2  0
 36 37  1  0
 35 38  1  0
 34 39  1  0
 33 40  1  0
 32 41  1  0
 30 42  1  0
 30 43  1  0
 29 44  1  1
 28 45  1  0
 28 46  1  0
  8 47  1  0
 47 48  2  0
 48 49  1  0
 49 50  1  0
 49 51  2  0
 51 52  1  0
 52 53  2  0
 53 54  1  0
 54 55  2  0
 52 56  1  0
 51 57  1  0
 48 58  1  0
  7 59  1  0
  7 60  1  0
  5 61  1  0
  5 62  1  0
  2 63  1  0
  1 64  1  0
  1 65  1  0
  1 66  1  0
 54  6  1  0
 29  8  1  0
 36 31  1  0
 53 47  1  0
 21 12  1  0
 21 16  1  0
M  END
>  <cnnaffinities>  (21) 
[6.32472, 6.34905]

>  <score>  (21) 
6.32472

>  <index>  (21) 
20

>  <Smiles>  (21) 
C(N(C(=O)C(N1C([C@@]2(C(=O)N(c3c(nc(c4c(c(c(c(c34)[H])[H])[H])[H])[H])[H])C([C@@]2(C(c2c(c(c(c(c2[H])[H])[H])[H])[H])([H])[H])[H])([H])[H])c2c(c(Cl)c(c(c2C1=O)[H])[H])[H])([H])[H])([H])[H])[H])([H])([H])[H]

>  <h>  (21) 
<NA>

>  <Training>  (21) 
True

>  <Success>  (21) 
True

>  <enamine_searched>  (21) 
False

>  <enamine_id>  (21) 
nan

$$$$

     RDKit          3D

 63 68  0  0  0  0  0  0  0  0999 V2000
   -8.2140   -3.7986  -23.9208 C   0  0  0  0  0  0  0  0  0  0  0  0
   -8.3947   -3.0397  -22.6126 C   0  0  1  0  0  0  0  0  0  0  0  0
   -7.0620   -2.4736  -22.0831 C   0  0  0  0  0  0  0  0  0  0  0  0
   -7.4810   -1.3549  -21.2672 N   0  0  0  0  0  0  0  0  0  0  0  0
   -6.6712   -0.8682  -20.2084 C   0  0  0  0  0  0  0  0  0  0  0  0
   -6.9572   -1.1798  -18.8999 C   0  0  0  0  0  0  0  0  0  0  0  0
   -6.1615   -0.8575  -17.8513 N   0  0  0  0  0  0  0  0  0  0  0  0
   -5.0834   -0.1577  -18.1048 C   0  0  0  0  0  0  0  0  0  0  0  0
   -4.7003    0.2874  -19.4026 C   0  0  0  0  0  0  0  0  0  0  0  0
   -3.5923    1.1521  -19.6102 C   0  0  0  0  0  0  0  0  0  0  0  0
   -3.2589    1.5645  -20.8717 C   0  0  0  0  0  0  0  0  0  0  0  0
   -3.9948    1.1027  -21.9837 C   0  0  0  0  0  0  0  0  0  0  0  0
   -5.0806    0.2727  -21.8037 C   0  0  0  0  0  0  0  0  0  0  0  0
   -5.4855   -0.1250  -20.5016 C   0  0  0  0  0  0  0  0  0  0  0  0
   -5.6954    0.0044  -22.6566 H   0  0  0  0  0  0  0  0  0  0  0  0
   -3.7288    1.4446  -22.9802 H   0  0  0  0  0  0  0  0  0  0  0  0
   -2.4402    2.2634  -21.0226 H   0  0  0  0  0  0  0  0  0  0  0  0
   -3.0481    1.4968  -18.7360 H   0  0  0  0  0  0  0  0  0  0  0  0
   -4.4508    0.1030  -17.2572 H   0  0  0  0  0  0  0  0  0  0  0  0
   -7.8538   -1.7432  -18.6535 H   0  0  0  0  0  0  0  0  0  0  0  0
   -8.7734   -0.9407  -21.5114 C   0  0  0  0  0  0  0  0  0  0  0  0
   -9.3073    0.0030  -20.9593 O   0  0  0  0  0  0  0  0  0  0  0  0
   -9.3751   -1.8280  -22.6468 C   0  0  1  0  0  0  0  0  0  0  0  0
   -9.2886   -1.0542  -23.9925 C   0  0  0  0  0  0  0  0  0  0  0  0
  -10.1720    0.0986  -24.0160 N   0  0  0  0  0  0  0  0  0  0  0  0
   -9.7013    1.3417  -24.6025 C   0  0  0  0  0  0  0  0  0  0  0  0
   -8.3817    1.7520  -23.9380 C   0  0  0  0  0  0  0  0  0  0  0  0
   -7.2893    1.5274  -24.4372 O   0  0  0  0  0  0  0  0  0  0  0  0
   -8.5572    2.3345  -22.7213 N   0  0  0  0  0  0  0  0  0  0  0  0
   -7.4597    2.7086  -21.8503 C   0  0  0  0  0  0  0  0  0  0  0  0
   -7.1725    4.2009  -21.8709 C   0  0  0  0  0  0  0  0  0  0  0  0
   -6.1377    4.8313  -20.9812 C   0  0  0  0  0  0  0  0  0  0  0  0
   -5.8669    4.6852  -22.4535 C   0  0  0  0  0  0  0  0  0  0  0  0
   -5.1565    3.9240  -22.7803 H   0  0  0  0  0  0  0  0  0  0  0  0
   -5.8845    5.5621  -23.0929 H   0  0  0  0  0  0  0  0  0  0  0  0
   -5.5881    4.1985  -20.2849 H   0  0  0  0  0  0  0  0  0  0  0  0
   -6.3462    5.8239  -20.5845 H   0  0  0  0  0  0  0  0  0  0  0  0
   -8.0442    4.8121  -22.1004 H   0  0  0  0  0  0  0  0  0  0  0  0
   -7.6649    2.2968  -20.8539 H   0  0  0  0  0  0  0  0  0  0  0  0
   -6.5919    2.1651  -22.2180 H   0  0  0  0  0  0  0  0  0  0  0  0
   -9.4692    2.2976  -22.2909 H   0  0  0  0  0  0  0  0  0  0  0  0
  -10.4875    2.0835  -24.4280 H   0  0  0  0  0  0  0  0  0  0  0  0
   -9.5617    1.2577  -25.6861 H   0  0  0  0  0  0  0  0  0  0  0  0
  -11.4616    0.0250  -23.5841 C   0  0  0  0  0  0  0  0  0  0  0  0
  -12.2818    0.9064  -23.8024 O   0  0  0  0  0  0  0  0  0  0  0  0
  -11.8263   -1.2189  -22.8364 C   0  0  0  0  0  0  0  0  0  0  0  0
  -13.1785   -1.3968  -22.5443 C   0  0  0  0  0  0  0  0  0  0  0  0
  -13.5779   -2.3862  -21.6766 C   0  0  0  0  0  0  0  0  0  0  0  0
  -12.6007   -3.2361  -21.1821 C   0  0  0  0  0  0  0  0  0  0  0  0
  -12.9727   -4.0668  -20.1939 F   0  0  0  0  0  0  0  0  0  0  0  0
  -11.2817   -3.1956  -21.5955 C   0  0  0  0  0  0  0  0  0  0  0  0
  -10.8489   -2.1330  -22.4016 C   0  0  0  0  0  0  0  0  0  0  0  0
  -10.5979   -3.9540  -21.2234 H   0  0  0  0  0  0  0  0  0  0  0  0
  -14.6042   -2.5174  -21.3476 H   0  0  0  0  0  0  0  0  0  0  0  0
  -13.8983   -0.6910  -22.9456 H   0  0  0  0  0  0  0  0  0  0  0  0
   -8.2686   -0.6935  -24.1490 H   0  0  0  0  0  0  0  0  0  0  0  0
   -9.5613   -1.7262  -24.8175 H   0  0  0  0  0  0  0  0  0  0  0  0
   -6.4114   -2.1495  -22.9132 H   0  0  0  0  0  0  0  0  0  0  0  0
   -6.4918   -3.1948  -21.4824 H   0  0  0  0  0  0  0  0  0  0  0  0
   -8.7587   -3.7307  -21.8460 H   0  0  0  0  0  0  0  0  0  0  0  0
   -7.7650   -3.1493  -24.6804 H   0  0  0  0  0  0  0  0  0  0  0  0
   -7.5444   -4.6556  -23.7963 H   0  0  0  0  0  0  0  0  0  0  0  0
   -9.1676   -4.1629  -24.3144 H   0  0  0  0  0  0  0  0  0  0  0  0
  1  2  1  0
  2  3  1  0
  3  4  1  0
  4  5  1  0
  5  6  2  0
  6  7  1  0
  7  8  2  0
  8  9  1  0
  9 10  2  0
 10 11  1  0
 11 12  2  0
 12 13  1  0
 13 14  2  0
 13 15  1  0
 12 16  1  0
 11 17  1  0
 10 18  1  0
  8 19  1  0
  6 20  1  0
  4 21  1  0
 21 22  2  0
 21 23  1  0
 23 24  1  6
 24 25  1  0
 25 26  1  0
 26 27  1  0
 27 28  2  0
 27 29  1  0
 29 30  1  0
 30 31  1  0
 31 32  1  0
 32 33  1  0
 33 34  1  0
 33 35  1  0
 32 36  1  0
 32 37  1  0
 31 38  1  0
 30 39  1  0
 30 40  1  0
 29 41  1  0
 26 42  1  0
 26 43  1  0
 25 44  1  0
 44 45  2  0
 44 46  1  0
 46 47  2  0
 47 48  1  0
 48 49  2  0
 49 50  1  0
 49 51  1  0
 51 52  2  0
 51 53  1  0
 48 54  1  0
 47 55  1  0
 24 56  1  0
 24 57  1  0
  3 58  1  0
  3 59  1  0
  2 60  1  1
  1 61  1  0
  1 62  1  0
  1 63  1  0
 23  2  1  0
 33 31  1  0
 52 46  1  0
 14  5  1  0
 52 23  1  0
 14  9  1  0
M  END
>  <cnnaffinities>  (22) 
[6.72995, 6.07711, 6.16533]

>  <score>  (22) 
6.72995

>  <index>  (22) 
21

>  <Smiles>  (22) 
C([C@]1(C(N(c2c(nc(c3c(c(c(c(c23)[H])[H])[H])[H])[H])[H])C(=O)[C@]21C(N(C(C(=O)N(C(C1(C(C1([H])[H])([H])[H])[H])([H])[H])[H])([H])[H])C(=O)c1c(c(c(F)c(c21)[H])[H])[H])([H])[H])([H])[H])[H])([H])([H])[H]

>  <h>  (22) 
<NA>

>  <Training>  (22) 
True

>  <Success>  (22) 
True

>  <enamine_searched>  (22) 
False

>  <enamine_id>  (22) 
nan

$$$$

     RDKit          3D

 68 73  0  0  0  0  0  0  0  0999 V2000
  -14.4094   -1.1983  -23.8195 C   0  0  0  0  0  0  0  0  0  0  0  0
  -13.7321   -2.3893  -23.3577 N   0  0  0  0  0  0  0  0  0  0  0  0
  -13.4721   -2.5519  -22.0361 C   0  0  0  0  0  0  0  0  0  0  0  0
  -13.9190   -1.7993  -21.1772 O   0  0  0  0  0  0  0  0  0  0  0  0
  -12.6271   -3.7865  -21.7061 C   0  0  0  0  0  0  0  0  0  0  0  0
  -11.2875   -3.8002  -22.2810 N   0  0  0  0  0  0  0  0  0  0  0  0
  -10.1645   -3.2545  -21.5241 C   0  0  0  0  0  0  0  0  0  0  0  0
   -8.9278   -2.8637  -22.3755 C   0  0  2  0  0  0  0  0  0  0  0  0
   -7.7512   -2.6910  -21.4132 C   0  0  0  0  0  0  0  0  0  0  0  0
   -7.1532   -3.5807  -20.8443 O   0  0  0  0  0  0  0  0  0  0  0  0
   -7.4573   -1.3476  -21.2751 N   0  0  0  0  0  0  0  0  0  0  0  0
   -6.6029   -0.9267  -20.2325 C   0  0  0  0  0  0  0  0  0  0  0  0
   -6.8828   -1.2729  -18.9354 C   0  0  0  0  0  0  0  0  0  0  0  0
   -6.1299   -0.9039  -17.8733 N   0  0  0  0  0  0  0  0  0  0  0  0
   -5.0813   -0.1503  -18.1016 C   0  0  0  0  0  0  0  0  0  0  0  0
   -4.7007    0.3098  -19.3956 C   0  0  0  0  0  0  0  0  0  0  0  0
   -3.6040    1.1887  -19.5967 C   0  0  0  0  0  0  0  0  0  0  0  0
   -3.2435    1.5658  -20.8615 C   0  0  0  0  0  0  0  0  0  0  0  0
   -3.9488    1.0707  -21.9834 C   0  0  0  0  0  0  0  0  0  0  0  0
   -5.0312    0.2418  -21.8134 C   0  0  0  0  0  0  0  0  0  0  0  0
   -5.4541   -0.1239  -20.5087 C   0  0  0  0  0  0  0  0  0  0  0  0
   -5.5751   -0.1457  -22.6690 H   0  0  0  0  0  0  0  0  0  0  0  0
   -3.6315    1.3510  -22.9834 H   0  0  0  0  0  0  0  0  0  0  0  0
   -2.4057    2.2413  -21.0168 H   0  0  0  0  0  0  0  0  0  0  0  0
   -3.0795    1.5631  -18.7208 H   0  0  0  0  0  0  0  0  0  0  0  0
   -4.4676    0.1224  -17.2402 H   0  0  0  0  0  0  0  0  0  0  0  0
   -7.7547   -1.8812  -18.7019 H   0  0  0  0  0  0  0  0  0  0  0  0
   -8.4168   -0.4803  -21.9541 C   0  0  0  0  0  0  0  0  0  0  0  0
   -9.0309   -1.4335  -22.9925 C   0  0  2  0  0  0  0  0  0  0  0  0
  -10.4490   -1.0971  -23.4701 C   0  0  0  0  0  0  0  0  0  0  0  0
  -10.5641    0.0634  -24.3191 N   0  0  0  0  0  0  0  0  0  0  0  0
  -10.6526    1.3302  -23.7441 C   0  0  0  0  0  0  0  0  0  0  0  0
  -11.5479    1.6194  -22.7034 C   0  0  0  0  0  0  0  0  0  0  0  0
  -11.6686    2.9301  -22.2502 C   0  0  0  0  0  0  0  0  0  0  0  0
  -10.8866    3.9480  -22.7912 C   0  0  0  0  0  0  0  0  0  0  0  0
   -9.9676    3.6473  -23.7910 C   0  0  0  0  0  0  0  0  0  0  0  0
   -9.8597    2.3552  -24.2722 C   0  0  0  0  0  0  0  0  0  0  0  0
   -9.1407    2.1126  -25.0532 H   0  0  0  0  0  0  0  0  0  0  0  0
   -9.3437    4.4248  -24.2234 H   0  0  0  0  0  0  0  0  0  0  0  0
  -10.9788    4.9644  -22.4204 H   0  0  0  0  0  0  0  0  0  0  0  0
  -12.3737    3.1559  -21.4499 H   0  0  0  0  0  0  0  0  0  0  0  0
  -12.1747    0.8416  -22.2617 H   0  0  0  0  0  0  0  0  0  0  0  0
   -9.9233    0.0442  -25.0996 H   0  0  0  0  0  0  0  0  0  0  0  0
  -11.0982   -0.9449  -22.6051 H   0  0  0  0  0  0  0  0  0  0  0  0
  -10.8204   -1.9684  -24.0209 H   0  0  0  0  0  0  0  0  0  0  0  0
   -8.3563   -1.4332  -23.8602 H   0  0  0  0  0  0  0  0  0  0  0  0
   -7.9215    0.3868  -22.4014 H   0  0  0  0  0  0  0  0  0  0  0  0
   -9.1676   -0.0883  -21.2516 H   0  0  0  0  0  0  0  0  0  0  0  0
   -8.6637   -3.9464  -23.3977 C   0  0  0  0  0  0  0  0  0  0  0  0
   -7.3802   -4.1505  -23.9214 C   0  0  0  0  0  0  0  0  0  0  0  0
   -7.1778   -5.1353  -24.8730 C   0  0  0  0  0  0  0  0  0  0  0  0
   -5.5911   -5.3593  -25.5479 Cl  0  0  0  0  0  0  0  0  0  0  0  0
   -8.2199   -5.9689  -25.2827 C   0  0  0  0  0  0  0  0  0  0  0  0
   -9.4939   -5.7471  -24.7906 C   0  0  0  0  0  0  0  0  0  0  0  0
   -9.7232   -4.7144  -23.8873 C   0  0  0  0  0  0  0  0  0  0  0  0
  -11.1291   -4.4319  -23.4750 C   0  0  0  0  0  0  0  0  0  0  0  0
  -12.0938   -4.7297  -24.1780 O   0  0  0  0  0  0  0  0  0  0  0  0
  -10.3426   -6.3571  -25.0910 H   0  0  0  0  0  0  0  0  0  0  0  0
   -8.0311   -6.7782  -25.9777 H   0  0  0  0  0  0  0  0  0  0  0  0
   -6.5408   -3.5733  -23.5457 H   0  0  0  0  0  0  0  0  0  0  0  0
   -9.8221   -3.9665  -20.7720 H   0  0  0  0  0  0  0  0  0  0  0  0
  -10.4987   -2.3629  -20.9849 H   0  0  0  0  0  0  0  0  0  0  0  0
  -12.5631   -3.9080  -20.6239 H   0  0  0  0  0  0  0  0  0  0  0  0
  -13.1566   -4.6389  -22.1462 H   0  0  0  0  0  0  0  0  0  0  0  0
  -13.3636   -3.0479  -24.0356 H   0  0  0  0  0  0  0  0  0  0  0  0
  -13.7393   -0.3239  -23.8026 H   0  0  0  0  0  0  0  0  0  0  0  0
  -15.2621   -0.9829  -23.1689 H   0  0  0  0  0  0  0  0  0  0  0  0
  -14.7585   -1.3751  -24.8405 H   0  0  0  0  0  0  0  0  0  0  0  0
  1  2  1  0
  2  3  1  0
  3  4  2  0
  3  5  1  0
  5  6  1  0
  6  7  1  0
  8  7  1  1
  8  9  1  0
  9 10  2  0
  9 11  1  0
 11 12  1  0
 12 13  2  0
 13 14  1  0
 14 15  2  0
 15 16  1  0
 16 17  2  0
 17 18  1  0
 18 19  2  0
 19 20  1  0
 20 21  2  0
 20 22  1  0
 19 23  1  0
 18 24  1  0
 17 25  1  0
 15 26  1  0
 13 27  1  0
 11 28  1  0
 28 29  1  0
 29 30  1  0
 30 31  1  0
 31 32  1  0
 32 33  2  0
 33 34  1  0
 34 35  2  0
 35 36  1  0
 36 37  2  0
 37 38  1  0
 36 39  1  0
 35 40  1  0
 34 41  1  0
 33 42  1  0
 31 43  1  0
 30 44  1  0
 30 45  1  0
 29 46  1  6
 28 47  1  0
 28 48  1  0
  8 49  1  0
 49 50  2  0
 50 51  1  0
 51 52  1  0
 51 53  2  0
 53 54  1  0
 54 55  2  0
 55 56  1  0
 56 57  2  0
 54 58  1  0
 53 59  1  0
 50 60  1  0
  7 61  1  0
  7 62  1  0
  5 63  1  0
  5 64  1  0
  2 65  1  0
  1 66  1  0
  1 67  1  0
  1 68  1  0
 56  6  1  0
 29  8  1  0
 37 32  1  0
 55 49  1  0
 21 12  1  0
 21 16  1  0
M  END
>  <cnnaffinities>  (23) 
[6.88997, 6.47705]

>  <score>  (23) 
6.88997

>  <index>  (23) 
23

>  <Smiles>  (23) 
C(N(C(=O)C(N1C([C@@]2(C(=O)N(c3c(nc(c4c(c(c(c(c34)[H])[H])[H])[H])[H])[H])C([C@@]2(C(N(c2c(c(c(c(c2[H])[H])[H])[H])[H])[H])([H])[H])[H])([H])[H])c2c(c(Cl)c(c(c2C1=O)[H])[H])[H])([H])[H])([H])[H])[H])([H])([H])[H]

>  <h>  (23) 
<NA>

>  <Training>  (23) 
True

>  <Success>  (23) 
True

>  <enamine_searched>  (23) 
False

>  <enamine_id>  (23) 
nan

$$$$

     RDKit          3D

 65 70  0  0  0  0  0  0  0  0999 V2000
   -9.2348    2.4140  -25.9032 O   0  0  0  0  0  0  0  0  0  0  0  0
   -9.1934    1.4749  -26.6828 C   0  0  0  0  0  0  0  0  0  0  0  0
   -8.5267    0.1611  -26.2972 C   0  0  0  0  0  0  0  0  0  0  0  0
   -9.1553   -0.3894  -25.0757 N   0  0  1  0  0  4  0  0  0  0  0  0
  -10.6226   -0.6596  -25.2652 C   0  0  0  0  0  0  0  0  0  0  0  0
  -11.2469   -1.3198  -24.0623 C   0  0  0  0  0  0  0  0  0  0  0  0
  -12.6364   -1.3549  -23.9684 C   0  0  0  0  0  0  0  0  0  0  0  0
  -13.2685   -2.0385  -22.9414 C   0  0  0  0  0  0  0  0  0  0  0  0
  -12.4891   -2.6510  -21.9700 C   0  0  0  0  0  0  0  0  0  0  0  0
  -13.2793   -3.4414  -20.6354 Cl  0  0  0  0  0  0  0  0  0  0  0  0
  -11.1065   -2.6139  -22.0357 C   0  0  0  0  0  0  0  0  0  0  0  0
  -10.4638   -1.9511  -23.0897 C   0  0  0  0  0  0  0  0  0  0  0  0
   -8.9374   -1.9512  -23.1967 C   0  0  2  0  0  0  0  0  0  0  0  0
   -8.2853   -3.2381  -22.6724 C   0  0  0  0  0  0  0  0  0  0  0  0
   -7.5095   -2.8676  -21.4005 C   0  0  0  0  0  0  0  0  0  0  0  0
   -7.5328   -1.4141  -21.3398 N   0  0  0  0  0  0  0  0  0  0  0  0
   -6.7401   -0.8115  -20.3197 C   0  0  0  0  0  0  0  0  0  0  0  0
   -6.9951   -1.1953  -19.0225 C   0  0  0  0  0  0  0  0  0  0  0  0
   -6.2446   -0.8738  -17.9452 N   0  0  0  0  0  0  0  0  0  0  0  0
   -5.1755   -0.1492  -18.1558 C   0  0  0  0  0  0  0  0  0  0  0  0
   -4.7757    0.3199  -19.4368 C   0  0  0  0  0  0  0  0  0  0  0  0
   -3.6003    1.1017  -19.5951 C   0  0  0  0  0  0  0  0  0  0  0  0
   -3.2018    1.5030  -20.8344 C   0  0  0  0  0  0  0  0  0  0  0  0
   -3.9397    1.1162  -21.9739 C   0  0  0  0  0  0  0  0  0  0  0  0
   -5.0827    0.3606  -21.8526 C   0  0  0  0  0  0  0  0  0  0  0  0
   -5.5568   -0.0316  -20.5701 C   0  0  0  0  0  0  0  0  0  0  0  0
   -5.6236    0.0551  -22.7429 H   0  0  0  0  0  0  0  0  0  0  0  0
   -3.5901    1.4109  -22.9562 H   0  0  0  0  0  0  0  0  0  0  0  0
   -2.3078    2.1117  -20.9554 H   0  0  0  0  0  0  0  0  0  0  0  0
   -3.0320    1.3568  -18.7030 H   0  0  0  0  0  0  0  0  0  0  0  0
   -4.5459    0.0773  -17.2942 H   0  0  0  0  0  0  0  0  0  0  0  0
   -7.8593   -1.8243  -18.8093 H   0  0  0  0  0  0  0  0  0  0  0  0
   -8.2857   -0.8461  -22.3369 C   0  0  0  0  0  0  0  0  0  0  0  0
   -8.3927    0.3425  -22.5991 O   0  0  0  0  0  0  0  0  0  0  0  0
   -7.9646   -3.2908  -20.5046 H   0  0  0  0  0  0  0  0  0  0  0  0
   -6.4664   -3.2000  -21.4192 H   0  0  0  0  0  0  0  0  0  0  0  0
   -7.6130   -3.6638  -23.4232 H   0  0  0  0  0  0  0  0  0  0  0  0
   -9.0324   -4.0058  -22.4668 H   0  0  0  0  0  0  0  0  0  0  0  0
   -8.5187   -1.6676  -24.6498 C   0  0  0  0  0  0  0  0  0  0  0  0
   -8.8521   -2.4849  -25.3054 H   0  0  0  0  0  0  0  0  0  0  0  0
   -7.4261   -1.5972  -24.7190 H   0  0  0  0  0  0  0  0  0  0  0  0
  -10.5326   -3.1226  -21.2696 H   0  0  0  0  0  0  0  0  0  0  0  0
  -14.3474   -2.1042  -22.8926 H   0  0  0  0  0  0  0  0  0  0  0  0
  -13.2343   -0.8514  -24.7227 H   0  0  0  0  0  0  0  0  0  0  0  0
  -10.7494   -1.3206  -26.1325 H   0  0  0  0  0  0  0  0  0  0  0  0
  -11.1254    0.2793  -25.5021 H   0  0  0  0  0  0  0  0  0  0  0  0
   -9.0315    0.3062  -24.2934 H   0  0  0  0  0  0  0  0  0  0  0  0
   -7.4726    0.3553  -26.0836 H   0  0  0  0  0  0  0  0  0  0  0  0
   -8.5782   -0.5665  -27.1187 H   0  0  0  0  0  0  0  0  0  0  0  0
   -9.7387    1.4957  -27.9308 N   0  0  0  0  0  0  0  0  0  0  0  0
  -10.3947    2.6775  -28.4545 C   0  0  0  0  0  0  0  0  0  0  0  0
   -9.7974    3.1220  -29.7914 C   0  0  1  0  0  0  0  0  0  0  0  0
   -9.7885    2.0655  -30.9302 C   0  0  0  0  0  0  0  0  0  0  0  0
  -10.5429    3.0459  -31.8384 C   0  0  1  0  0  0  0  0  0  0  0  0
  -11.7302    2.5621  -32.3660 F   0  0  0  0  0  0  0  0  0  0  0  0
  -10.7074    4.0217  -30.6647 C   0  0  0  0  0  0  0  0  0  0  0  0
  -10.4015    5.0563  -30.8460 H   0  0  0  0  0  0  0  0  0  0  0  0
  -11.7361    4.0224  -30.3034 H   0  0  0  0  0  0  0  0  0  0  0  0
   -9.9486    3.4303  -32.6708 H   0  0  0  0  0  0  0  0  0  0  0  0
  -10.4072    1.1969  -30.7095 H   0  0  0  0  0  0  0  0  0  0  0  0
   -8.8161    1.7109  -31.2870 H   0  0  0  0  0  0  0  0  0  0  0  0
   -8.8032    3.5485  -29.6359 H   0  0  0  0  0  0  0  0  0  0  0  0
  -10.2827    3.4488  -27.6894 H   0  0  0  0  0  0  0  0  0  0  0  0
  -11.4698    2.4915  -28.5775 H   0  0  0  0  0  0  0  0  0  0  0  0
   -9.9071    0.6200  -28.4018 H   0  0  0  0  0  0  0  0  0  0  0  0
  1  2  2  0
  2  3  1  0
  3  4  1  0
  4  5  1  0
  5  6  1  0
  6  7  2  0
  7  8  1  0
  8  9  2  0
  9 10  1  0
  9 11  1  0
 11 12  2  0
 12 13  1  0
 13 14  1  1
 14 15  1  0
 15 16  1  0
 16 17  1  0
 17 18  2  0
 18 19  1  0
 19 20  2  0
 20 21  1  0
 21 22  2  0
 22 23  1  0
 23 24  2  0
 24 25  1  0
 25 26  2  0
 25 27  1  0
 24 28  1  0
 23 29  1  0
 22 30  1  0
 20 31  1  0
 18 32  1  0
 16 33  1  0
 33 34  2  0
 15 35  1  0
 15 36  1  0
 14 37  1  0
 14 38  1  0
 13 39  1  0
 39 40  1  0
 39 41  1  0
 11 42  1  0
  8 43  1  0
  7 44  1  0
  5 45  1  0
  5 46  1  0
  4 47  1  1
  3 48  1  0
  3 49  1  0
  2 50  1  0
 50 51  1  0
 51 52  1  0
 52 53  1  0
 53 54  1  0
 54 55  1  0
 54 56  1  0
 56 57  1  0
 56 58  1  0
 54 59  1  6
 53 60  1  0
 53 61  1  0
 52 62  1  1
 51 63  1  0
 51 64  1  0
 50 65  1  0
 39  4  1  0
 56 52  1  0
 12  6  1  0
 33 13  1  0
 26 17  1  0
 26 21  1  0
M  CHG  1   4   1
M  END
>  <cnnaffinities>  (24) 
[5.5836]

>  <score>  (24) 
5.5836

>  <index>  (24) 
24

>  <Smiles>  (24) 
O=C(C([N@+]1(C(c2c(c(c(Cl)c(c2[C@@]2(C(C(N(c3c(nc(c4c(c(c(c(c34)[H])[H])[H])[H])[H])[H])C2=O)([H])[H])([H])[H])C1([H])[H])[H])[H])[H])([H])[H])[H])([H])[H])N(C([C@]1(C([C@@](F)(C1([H])[H])[H])([H])[H])[H])([H])[H])[H]

>  <h>  (24) 
<NA>

>  <Training>  (24) 
True

>  <Success>  (24) 
True

>  <enamine_searched>  (24) 
False

>  <enamine_id>  (24) 
nan

$$$$

     RDKit          3D

 70 75  0  0  0  0  0  0  0  0999 V2000
   -5.5548   -7.2982  -25.7273 O   0  0  0  0  0  0  0  0  0  0  0  0
   -5.5610   -6.9741  -24.5543 C   0  0  0  0  0  0  0  0  0  0  0  0
   -6.7875   -6.3610  -23.8651 C   0  0  0  0  0  0  0  0  0  0  0  0
   -6.8068   -4.8671  -23.9549 N   0  0  1  0  0  4  0  0  0  0  0  0
   -6.7675   -4.4953  -25.4297 C   0  0  0  0  0  0  0  0  0  0  0  0
   -6.7845   -3.0116  -25.6393 C   0  0  0  0  0  0  0  0  0  0  0  0
   -6.2876   -2.4679  -26.8221 C   0  0  0  0  0  0  0  0  0  0  0  0
   -6.3059   -1.0994  -27.0383 C   0  0  0  0  0  0  0  0  0  0  0  0
   -6.8233   -0.2714  -26.0480 C   0  0  0  0  0  0  0  0  0  0  0  0
   -6.8399    1.4486  -26.2976 Cl  0  0  0  0  0  0  0  0  0  0  0  0
   -7.3122   -0.7968  -24.8624 C   0  0  0  0  0  0  0  0  0  0  0  0
   -7.3130   -2.1776  -24.6611 C   0  0  0  0  0  0  0  0  0  0  0  0
   -7.8321   -2.7136  -23.3467 C   0  0  2  0  0  0  0  0  0  0  0  0
   -6.8372   -2.3749  -22.2474 C   0  0  0  0  0  0  0  0  0  0  0  0
   -5.7431   -2.9217  -22.2050 O   0  0  0  0  0  0  0  0  0  0  0  0
   -7.2988   -1.4485  -21.3397 N   0  0  0  0  0  0  0  0  0  0  0  0
   -6.5538   -0.9049  -20.2701 C   0  0  0  0  0  0  0  0  0  0  0  0
   -6.9151   -1.1434  -18.9694 C   0  0  0  0  0  0  0  0  0  0  0  0
   -6.1692   -0.7910  -17.8945 N   0  0  0  0  0  0  0  0  0  0  0  0
   -5.0919   -0.0764  -18.1188 C   0  0  0  0  0  0  0  0  0  0  0  0
   -4.7094    0.3911  -19.4076 C   0  0  0  0  0  0  0  0  0  0  0  0
   -3.6236    1.2853  -19.6059 C   0  0  0  0  0  0  0  0  0  0  0  0
   -3.2638    1.6677  -20.8681 C   0  0  0  0  0  0  0  0  0  0  0  0
   -3.9794    1.1963  -21.9917 C   0  0  0  0  0  0  0  0  0  0  0  0
   -5.0564    0.3659  -21.8305 C   0  0  0  0  0  0  0  0  0  0  0  0
   -5.4418   -0.0539  -20.5271 C   0  0  0  0  0  0  0  0  0  0  0  0
   -5.6224    0.0220  -22.6918 H   0  0  0  0  0  0  0  0  0  0  0  0
   -3.6710    1.4930  -22.9892 H   0  0  0  0  0  0  0  0  0  0  0  0
   -2.4156    2.3285  -21.0249 H   0  0  0  0  0  0  0  0  0  0  0  0
   -3.1039    1.6731  -18.7350 H   0  0  0  0  0  0  0  0  0  0  0  0
   -4.4678    0.1798  -17.2610 H   0  0  0  0  0  0  0  0  0  0  0  0
   -7.8375   -1.6801  -18.7403 H   0  0  0  0  0  0  0  0  0  0  0  0
   -8.3042   -1.4155  -21.2405 H   0  0  0  0  0  0  0  0  0  0  0  0
   -8.0219   -4.2290  -23.3297 C   0  0  0  0  0  0  0  0  0  0  0  0
   -8.9179   -4.5183  -23.8849 H   0  0  0  0  0  0  0  0  0  0  0  0
   -8.1243   -4.5743  -22.2985 H   0  0  0  0  0  0  0  0  0  0  0  0
   -8.7648   -2.2066  -23.0947 H   0  0  0  0  0  0  0  0  0  0  0  0
   -7.6873   -0.1302  -24.0908 H   0  0  0  0  0  0  0  0  0  0  0  0
   -5.9267   -0.6774  -27.9622 H   0  0  0  0  0  0  0  0  0  0  0  0
   -5.8823   -3.1295  -27.5853 H   0  0  0  0  0  0  0  0  0  0  0  0
   -7.6419   -4.9707  -25.8909 H   0  0  0  0  0  0  0  0  0  0  0  0
   -5.8909   -4.9535  -25.8834 H   0  0  0  0  0  0  0  0  0  0  0  0
   -5.9920   -4.4395  -23.4577 H   0  0  0  0  0  0  0  0  0  0  0  0
   -7.6482   -6.7657  -24.4114 H   0  0  0  0  0  0  0  0  0  0  0  0
   -6.8198   -6.7035  -22.8255 H   0  0  0  0  0  0  0  0  0  0  0  0
   -4.4693   -7.1333  -23.7445 N   0  0  0  0  0  0  0  0  0  0  0  0
   -3.2632   -7.7219  -24.1945 C   0  0  0  0  0  0  0  0  0  0  0  0
   -2.0426   -7.0931  -23.9569 C   0  0  0  0  0  0  0  0  0  0  0  0
   -0.8685   -7.6917  -24.3897 C   0  0  0  0  0  0  0  0  0  0  0  0
   -0.9037   -8.9031  -25.0764 C   0  0  0  0  0  0  0  0  0  0  0  0
    0.3071   -9.5256  -25.4933 N   0  0  0  0  0  0  0  0  0  0  0  0
    1.3053   -9.8583  -24.4805 C   0  0  0  0  0  0  0  0  0  0  0  0
    2.6276  -10.2209  -25.1337 C   0  0  0  0  0  0  0  0  0  0  0  0
    2.4040  -11.1813  -26.1379 O   0  0  0  0  0  0  0  0  0  0  0  0
    1.6869  -10.6230  -27.2036 C   0  0  0  0  0  0  0  0  0  0  0  0
    0.3955   -9.9321  -26.7995 C   0  0  0  0  0  0  0  0  0  0  0  0
   -0.4675   -9.7090  -27.6303 O   0  0  0  0  0  0  0  0  0  0  0  0
    2.2865   -9.8780  -27.7485 H   0  0  0  0  0  0  0  0  0  0  0  0
    1.4351  -11.4214  -27.8998 H   0  0  0  0  0  0  0  0  0  0  0  0
    3.1275   -9.3330  -25.5497 H   0  0  0  0  0  0  0  0  0  0  0  0
    3.3053  -10.6763  -24.4072 H   0  0  0  0  0  0  0  0  0  0  0  0
    1.4423   -9.0119  -23.8032 H   0  0  0  0  0  0  0  0  0  0  0  0
    0.9539  -10.7028  -23.8774 H   0  0  0  0  0  0  0  0  0  0  0  0
   -2.1306   -9.5153  -25.3267 C   0  0  0  0  0  0  0  0  0  0  0  0
   -3.3003   -8.9454  -24.8570 C   0  0  0  0  0  0  0  0  0  0  0  0
   -4.2578   -9.4258  -25.0223 H   0  0  0  0  0  0  0  0  0  0  0  0
   -2.1744  -10.4577  -25.8622 H   0  0  0  0  0  0  0  0  0  0  0  0
    0.0856   -7.2001  -24.2241 H   0  0  0  0  0  0  0  0  0  0  0  0
   -2.0091   -6.1414  -23.4316 H   0  0  0  0  0  0  0  0  0  0  0  0
   -4.4452   -6.6226  -22.8761 H   0  0  0  0  0  0  0  0  0  0  0  0
  1  2  2  0
  2  3  1  0
  3  4  1  0
  4  5  1  0
  5  6  1  0
  6  7  2  0
  7  8  1  0
  8  9  2  0
  9 10  1  0
  9 11  1  0
 11 12  2  0
 12 13  1  0
 13 14  1  0
 14 15  2  0
 14 16  1  0
 16 17  1  0
 17 18  2  0
 18 19  1  0
 19 20  2  0
 20 21  1  0
 21 22  2  0
 22 23  1  0
 23 24  2  0
 24 25  1  0
 25 26  2  0
 25 27  1  0
 24 28  1  0
 23 29  1  0
 22 30  1  0
 20 31  1  0
 18 32  1  0
 16 33  1  0
 13 34  1  0
 34 35  1  0
 34 36  1  0
 13 37  1  1
 11 38  1  0
  8 39  1  0
  7 40  1  0
  5 41  1  0
  5 42  1  0
  4 43  1  1
  3 44  1  0
  3 45  1  0
  2 46  1  0
 46 47  1  0
 47 48  2  0
 48 49  1  0
 49 50  2  0
 50 51  1  0
 51 52  1  0
 52 53  1  0
 53 54  1  0
 54 55  1  0
 55 56  1  0
 56 57  2  0
 55 58  1  0
 55 59  1  0
 53 60  1  0
 53 61  1  0
 52 62  1  0
 52 63  1  0
 50 64  1  0
 64 65  2  0
 65 66  1  0
 64 67  1  0
 49 68  1  0
 48 69  1  0
 46 70  1  0
 34  4  1  0
 65 47  1  0
 12  6  1  0
 26 17  1  0
 56 51  1  0
 26 21  1  0
M  CHG  1   4   1
M  END
>  <cnnaffinities>  (25) 
[6.05108]

>  <score>  (25) 
6.05108

>  <index>  (25) 
25

>  <Smiles>  (25) 
O=C(C([N@+]1(C(c2c(c(c(Cl)c(c2[C@](C(=O)N(c2c(nc(c3c(c(c(c(c23)[H])[H])[H])[H])[H])[H])[H])(C1([H])[H])[H])[H])[H])[H])([H])[H])[H])([H])[H])N(c1c(c(c(N2C(C(OC(C2=O)([H])[H])([H])[H])([H])[H])c(c1[H])[H])[H])[H])[H]

>  <h>  (25) 
<NA>

>  <Training>  (25) 
True

>  <Success>  (25) 
True

>  <enamine_searched>  (25) 
False

>  <enamine_id>  (25) 
nan

$$$$

     RDKit          3D

 55 60  0  0  0  0  0  0  0  0999 V2000
  -10.4470   -1.0445  -23.3452 C   0  0  0  0  0  0  0  0  0  0  0  0
   -9.0133   -1.4303  -23.0013 C   0  0  1  0  0  0  0  0  0  0  0  0
   -8.3844   -0.5118  -21.9394 C   0  0  0  0  0  0  0  0  0  0  0  0
   -7.4017   -1.3740  -21.3003 N   0  0  0  0  0  0  0  0  0  0  0  0
   -6.5760   -0.9465  -20.2416 C   0  0  0  0  0  0  0  0  0  0  0  0
   -6.8745   -1.2866  -18.9482 C   0  0  0  0  0  0  0  0  0  0  0  0
   -6.1223   -0.9265  -17.8831 N   0  0  0  0  0  0  0  0  0  0  0  0
   -5.0716   -0.1742  -18.1060 C   0  0  0  0  0  0  0  0  0  0  0  0
   -4.6931    0.2987  -19.3951 C   0  0  0  0  0  0  0  0  0  0  0  0
   -3.6040    1.1853  -19.5902 C   0  0  0  0  0  0  0  0  0  0  0  0
   -3.2435    1.5653  -20.8539 C   0  0  0  0  0  0  0  0  0  0  0  0
   -3.9458    1.0758  -21.9798 C   0  0  0  0  0  0  0  0  0  0  0  0
   -5.0275    0.2466  -21.8153 C   0  0  0  0  0  0  0  0  0  0  0  0
   -5.4401   -0.1307  -20.5107 C   0  0  0  0  0  0  0  0  0  0  0  0
   -5.5773   -0.1328  -22.6711 H   0  0  0  0  0  0  0  0  0  0  0  0
   -3.6274    1.3594  -22.9784 H   0  0  0  0  0  0  0  0  0  0  0  0
   -2.4076    2.2425  -21.0051 H   0  0  0  0  0  0  0  0  0  0  0  0
   -3.0859    1.5618  -18.7124 H   0  0  0  0  0  0  0  0  0  0  0  0
   -4.4583    0.0940  -17.2442 H   0  0  0  0  0  0  0  0  0  0  0  0
   -7.7620   -1.8759  -18.7224 H   0  0  0  0  0  0  0  0  0  0  0  0
   -7.6790   -2.7168  -21.4550 C   0  0  0  0  0  0  0  0  0  0  0  0
   -7.0896   -3.6124  -20.8857 O   0  0  0  0  0  0  0  0  0  0  0  0
   -8.8442   -2.8820  -22.4282 C   0  0  1  0  0  0  0  0  0  0  0  0
  -10.0662   -3.3416  -21.5974 C   0  0  0  0  0  0  0  0  0  0  0  0
  -11.1633   -3.8116  -22.4184 N   0  0  0  0  0  0  0  0  0  0  0  0
  -12.5294   -3.7309  -21.9189 C   0  0  0  0  0  0  0  0  0  0  0  0
  -13.3592   -2.5947  -22.4380 C   0  0  0  0  0  0  0  0  0  0  0  0
  -14.0661   -2.4898  -23.6466 C   0  0  0  0  0  0  0  0  0  0  0  0
  -14.7688   -1.3622  -23.6488 N   0  0  0  0  0  0  0  0  0  0  0  0
  -14.4658   -0.8332  -22.4815 N   0  0  0  0  0  0  0  0  0  0  0  0
  -13.6600   -1.5308  -21.6998 N   0  0  0  0  0  0  0  0  0  0  0  0
  -14.9457   -0.0165  -22.1308 H   0  0  0  0  0  0  0  0  0  0  0  0
  -14.1137   -3.1949  -24.4629 H   0  0  0  0  0  0  0  0  0  0  0  0
  -12.5398   -3.6687  -20.8272 H   0  0  0  0  0  0  0  0  0  0  0  0
  -13.0379   -4.6425  -22.2405 H   0  0  0  0  0  0  0  0  0  0  0  0
  -10.9776   -4.5047  -23.5806 C   0  0  0  0  0  0  0  0  0  0  0  0
  -11.9359   -4.8832  -24.2496 O   0  0  0  0  0  0  0  0  0  0  0  0
   -9.5607   -4.7464  -23.9816 C   0  0  0  0  0  0  0  0  0  0  0  0
   -9.2856   -5.7577  -24.9014 C   0  0  0  0  0  0  0  0  0  0  0  0
   -8.0066   -5.9232  -25.3990 C   0  0  0  0  0  0  0  0  0  0  0  0
   -7.0154   -5.0543  -24.9553 C   0  0  0  0  0  0  0  0  0  0  0  0
   -5.7786   -5.1818  -25.4613 F   0  0  0  0  0  0  0  0  0  0  0  0
   -7.2441   -4.0960  -23.9861 C   0  0  0  0  0  0  0  0  0  0  0  0
   -8.5393   -3.9361  -23.4749 C   0  0  0  0  0  0  0  0  0  0  0  0
   -6.4070   -3.5253  -23.5974 H   0  0  0  0  0  0  0  0  0  0  0  0
   -7.7708   -6.6990  -26.1194 H   0  0  0  0  0  0  0  0  0  0  0  0
  -10.0969   -6.4134  -25.2058 H   0  0  0  0  0  0  0  0  0  0  0  0
  -10.4557   -2.5116  -21.0056 H   0  0  0  0  0  0  0  0  0  0  0  0
   -9.7363   -4.1052  -20.8858 H   0  0  0  0  0  0  0  0  0  0  0  0
   -9.1403   -0.1631  -21.2179 H   0  0  0  0  0  0  0  0  0  0  0  0
   -7.9189    0.3833  -22.3640 H   0  0  0  0  0  0  0  0  0  0  0  0
   -8.3862   -1.3864  -23.9012 H   0  0  0  0  0  0  0  0  0  0  0  0
  -10.5053   -0.0732  -23.8438 H   0  0  0  0  0  0  0  0  0  0  0  0
  -10.9055   -1.8039  -23.9879 H   0  0  0  0  0  0  0  0  0  0  0  0
  -11.0383   -0.9786  -22.4264 H   0  0  0  0  0  0  0  0  0  0  0  0
  1  2  1  0
  2  3  1  0
  3  4  1  0
  4  5  1  0
  5  6  2  0
  6  7  1  0
  7  8  2  0
  8  9  1  0
  9 10  2  0
 10 11  1  0
 11 12  2  0
 12 13  1  0
 13 14  2  0
 13 15  1  0
 12 16  1  0
 11 17  1  0
 10 18  1  0
  8 19  1  0
  6 20  1  0
  4 21  1  0
 21 22  2  0
 21 23  1  0
 23 24  1  1
 24 25  1  0
 25 26  1  0
 26 27  1  0
 27 28  1  0
 28 29  2  0
 29 30  1  0
 30 31  1  0
 30 32  1  0
 28 33  1  0
 26 34  1  0
 26 35  1  0
 25 36  1  0
 36 37  2  0
 36 38  1  0
 38 39  2  0
 39 40  1  0
 40 41  2  0
 41 42  1  0
 41 43  1  0
 43 44  2  0
 43 45  1  0
 40 46  1  0
 39 47  1  0
 24 48  1  0
 24 49  1  0
  3 50  1  0
  3 51  1  0
  2 52  1  6
  1 53  1  0
  1 54  1  0
  1 55  1  0
 23  2  1  0
 31 27  2  0
 44 38  1  0
 14  5  1  0
 44 23  1  0
 14  9  1  0
M  END
>  <cnnaffinities>  (26) 
[6.91623]

>  <score>  (26) 
6.91623

>  <index>  (26) 
26

>  <Smiles>  (26) 
C([C@]1(C(N(c2c(nc(c3c(c(c(c(c23)[H])[H])[H])[H])[H])[H])C(=O)[C@]21C(N(C(c1c(nn(n1)[H])[H])([H])[H])C(=O)c1c(c(c(F)c(c21)[H])[H])[H])([H])[H])([H])[H])[H])([H])([H])[H]

>  <h>  (26) 
<NA>

>  <Training>  (26) 
True

>  <Success>  (26) 
True

>  <enamine_searched>  (26) 
False

>  <enamine_id>  (26) 
nan

$$$$

     RDKit          3D

 58 62  0  0  0  0  0  0  0  0999 V2000
   -7.0483    3.5728  -22.0976 C   0  0  0  0  0  0  0  0  0  0  0  0
   -7.2914    2.5305  -23.1000 N   0  0  0  0  0  4  0  0  0  0  0  0
   -8.4487    2.8254  -23.9980 C   0  0  0  0  0  0  0  0  0  0  0  0
   -8.7240    1.6655  -24.9549 C   0  0  0  0  0  0  0  0  0  0  0  0
   -9.3801    0.5278  -24.3205 N   0  0  0  0  0  0  0  0  0  0  0  0
   -8.6743   -0.7321  -24.1901 C   0  0  0  0  0  0  0  0  0  0  0  0
   -9.0722   -1.4909  -22.9013 C   0  0  2  0  0  0  0  0  0  0  0  0
   -8.5364   -0.7306  -21.6662 C   0  0  0  0  0  0  0  0  0  0  0  0
   -8.9676    0.2982  -21.1791 O   0  0  0  0  0  0  0  0  0  0  0  0
   -7.4186   -1.3806  -21.2107 N   0  0  0  0  0  0  0  0  0  0  0  0
   -6.6228   -0.8102  -20.1876 C   0  0  0  0  0  0  0  0  0  0  0  0
   -6.9406   -1.0713  -18.8829 C   0  0  0  0  0  0  0  0  0  0  0  0
   -6.1786   -0.6840  -17.8335 N   0  0  0  0  0  0  0  0  0  0  0  0
   -5.1116    0.0327  -18.0895 C   0  0  0  0  0  0  0  0  0  0  0  0
   -4.7225    0.4683  -19.3958 C   0  0  0  0  0  0  0  0  0  0  0  0
   -3.6178    1.3384  -19.6336 C   0  0  0  0  0  0  0  0  0  0  0  0
   -3.2424    1.6641  -20.9097 C   0  0  0  0  0  0  0  0  0  0  0  0
   -3.9555    1.1439  -22.0129 C   0  0  0  0  0  0  0  0  0  0  0  0
   -5.0485    0.3324  -21.8115 C   0  0  0  0  0  0  0  0  0  0  0  0
   -5.4810   -0.0050  -20.4955 C   0  0  0  0  0  0  0  0  0  0  0  0
   -5.5694   -0.0785  -22.6722 H   0  0  0  0  0  0  0  0  0  0  0  0
   -3.6362    1.3859  -23.0240 H   0  0  0  0  0  0  0  0  0  0  0  0
   -2.3821    2.3052  -21.0873 H   0  0  0  0  0  0  0  0  0  0  0  0
   -3.0922    1.7495  -18.7746 H   0  0  0  0  0  0  0  0  0  0  0  0
   -4.4971    0.2995  -17.2248 H   0  0  0  0  0  0  0  0  0  0  0  0
   -7.8184   -1.6688  -18.6398 H   0  0  0  0  0  0  0  0  0  0  0  0
   -7.0572   -2.5690  -21.9561 C   0  0  0  0  0  0  0  0  0  0  0  0
   -8.3147   -2.8570  -22.8043 C   0  0  2  0  0  0  0  0  0  0  0  0
   -7.9726   -3.5647  -24.1219 C   0  0  0  0  0  0  0  0  0  0  0  0
   -7.5159   -4.5443  -23.9341 H   0  0  0  0  0  0  0  0  0  0  0  0
   -8.8592   -3.7231  -24.7475 H   0  0  0  0  0  0  0  0  0  0  0  0
   -7.2514   -2.9795  -24.7086 H   0  0  0  0  0  0  0  0  0  0  0  0
   -8.9600   -3.5124  -22.2144 H   0  0  0  0  0  0  0  0  0  0  0  0
   -6.8042   -3.3904  -21.2726 H   0  0  0  0  0  0  0  0  0  0  0  0
   -6.1733   -2.3874  -22.5880 H   0  0  0  0  0  0  0  0  0  0  0  0
  -10.5856   -1.5588  -22.8304 C   0  0  0  0  0  0  0  0  0  0  0  0
  -11.2270   -2.5134  -22.0328 C   0  0  0  0  0  0  0  0  0  0  0  0
  -12.6029   -2.5168  -21.9555 C   0  0  0  0  0  0  0  0  0  0  0  0
  -13.2093   -3.4418  -21.1933 F   0  0  0  0  0  0  0  0  0  0  0  0
  -13.3895   -1.5889  -22.6291 C   0  0  0  0  0  0  0  0  0  0  0  0
  -12.7595   -0.6072  -23.3656 C   0  0  0  0  0  0  0  0  0  0  0  0
  -11.3677   -0.5696  -23.4471 C   0  0  0  0  0  0  0  0  0  0  0  0
  -10.7347    0.5958  -24.1525 C   0  0  0  0  0  0  0  0  0  0  0  0
  -11.3943    1.5535  -24.5396 O   0  0  0  0  0  0  0  0  0  0  0  0
  -13.3123    0.1712  -23.8810 H   0  0  0  0  0  0  0  0  0  0  0  0
  -14.4660   -1.6425  -22.5389 H   0  0  0  0  0  0  0  0  0  0  0  0
  -10.6857   -3.2414  -21.4383 H   0  0  0  0  0  0  0  0  0  0  0  0
   -8.8791   -1.3867  -25.0520 H   0  0  0  0  0  0  0  0  0  0  0  0
   -7.6010   -0.5109  -24.1548 H   0  0  0  0  0  0  0  0  0  0  0  0
   -7.7816    1.3077  -25.3869 H   0  0  0  0  0  0  0  0  0  0  0  0
   -9.3775    2.0128  -25.7582 H   0  0  0  0  0  0  0  0  0  0  0  0
   -9.3332    3.0129  -23.3800 H   0  0  0  0  0  0  0  0  0  0  0  0
   -8.2400    3.7341  -24.5731 H   0  0  0  0  0  0  0  0  0  0  0  0
   -6.4252    2.4012  -23.6775 H   0  0  0  0  0  0  0  0  0  0  0  0
   -7.5052    1.6385  -22.6002 H   0  0  0  0  0  0  0  0  0  0  0  0
   -6.1796    3.2945  -21.5000 H   0  0  0  0  0  0  0  0  0  0  0  0
   -7.9248    3.6760  -21.4515 H   0  0  0  0  0  0  0  0  0  0  0  0
   -6.8732    4.5460  -22.5696 H   0  0  0  0  0  0  0  0  0  0  0  0
  1  2  1  0
  2  3  1  0
  3  4  1  0
  4  5  1  0
  5  6  1  0
  7  6  1  6
  7  8  1  0
  8  9  2  0
  8 10  1  0
 10 11  1  0
 11 12  2  0
 12 13  1  0
 13 14  2  0
 14 15  1  0
 15 16  2  0
 16 17  1  0
 17 18  2  0
 18 19  1  0
 19 20  2  0
 19 21  1  0
 18 22  1  0
 17 23  1  0
 16 24  1  0
 14 25  1  0
 12 26  1  0
 10 27  1  0
 27 28  1  0
 28 29  1  0
 29 30  1  0
 29 31  1  0
 29 32  1  0
 28 33  1  1
 27 34  1  0
 27 35  1  0
  7 36  1  0
 36 37  2  0
 37 38  1  0
 38 39  1  0
 38 40  2  0
 40 41  1  0
 41 42  2  0
 42 43  1  0
 43 44  2  0
 41 45  1  0
 40 46  1  0
 37 47  1  0
  6 48  1  0
  6 49  1  0
  4 50  1  0
  4 51  1  0
  3 52  1  0
  3 53  1  0
  2 54  1  0
  2 55  1  0
  1 56  1  0
  1 57  1  0
  1 58  1  0
 43  5  1  0
 28  7  1  0
 42 36  1  0
 20 11  1  0
 20 15  1  0
M  CHG  1   2   1
M  END
>  <cnnaffinities>  (27) 
[6.0194, 5.72688]

>  <score>  (27) 
6.0194

>  <index>  (27) 
27

>  <Smiles>  (27) 
C([N+](C(C(N1C([C@@]2(C(=O)N(c3c(nc(c4c(c(c(c(c34)[H])[H])[H])[H])[H])[H])C([C@@]2(C([H])([H])[H])[H])([H])[H])c2c(c(F)c(c(c2C1=O)[H])[H])[H])([H])[H])([H])[H])([H])[H])([H])[H])([H])([H])[H]

>  <h>  (27) 
<NA>

>  <Training>  (27) 
True

>  <Success>  (27) 
True

>  <enamine_searched>  (27) 
False

>  <enamine_id>  (27) 
nan

$$$$

     RDKit          3D

 64 68  0  0  0  0  0  0  0  0999 V2000
   -7.5475    2.4471  -22.0213 C   0  0  0  0  0  0  0  0  0  0  0  0
   -8.4873    2.2023  -23.0977 N   0  0  0  0  0  0  0  0  0  0  0  0
   -8.0710    1.7161  -24.2994 C   0  0  0  0  0  0  0  0  0  0  0  0
   -6.8981    1.5835  -24.6166 O   0  0  0  0  0  0  0  0  0  0  0  0
   -9.2431    1.2519  -25.1799 C   0  0  0  0  0  0  0  0  0  0  0  0
   -9.8700    0.1255  -24.5030 N   0  0  0  0  0  0  0  0  0  0  0  0
   -9.0870   -1.0731  -24.2623 C   0  0  0  0  0  0  0  0  0  0  0  0
   -9.3362   -1.7151  -22.8669 C   0  0  2  0  0  0  0  0  0  0  0  0
   -8.7482   -0.8617  -21.7083 C   0  0  0  0  0  0  0  0  0  0  0  0
   -9.3228    0.0244  -21.1037 O   0  0  0  0  0  0  0  0  0  0  0  0
   -7.4700   -1.3000  -21.4436 N   0  0  0  0  0  0  0  0  0  0  0  0
   -6.6896   -0.8832  -20.3323 C   0  0  0  0  0  0  0  0  0  0  0  0
   -7.0202   -1.2491  -19.0489 C   0  0  0  0  0  0  0  0  0  0  0  0
   -6.2734   -0.9311  -17.9642 N   0  0  0  0  0  0  0  0  0  0  0  0
   -5.1875   -0.2186  -18.1416 C   0  0  0  0  0  0  0  0  0  0  0  0
   -4.7176    0.1986  -19.4199 C   0  0  0  0  0  0  0  0  0  0  0  0
   -3.5298    0.9599  -19.5829 C   0  0  0  0  0  0  0  0  0  0  0  0
   -3.1194    1.3504  -20.8286 C   0  0  0  0  0  0  0  0  0  0  0  0
   -3.8599    0.9743  -21.9711 C   0  0  0  0  0  0  0  0  0  0  0  0
   -4.9972    0.2106  -21.8389 C   0  0  0  0  0  0  0  0  0  0  0  0
   -5.4710   -0.1706  -20.5554 C   0  0  0  0  0  0  0  0  0  0  0  0
   -5.5670   -0.0870  -22.7157 H   0  0  0  0  0  0  0  0  0  0  0  0
   -3.5447    1.3033  -22.9564 H   0  0  0  0  0  0  0  0  0  0  0  0
   -2.2129    1.9387  -20.9518 H   0  0  0  0  0  0  0  0  0  0  0  0
   -2.9731    1.2232  -18.6883 H   0  0  0  0  0  0  0  0  0  0  0  0
   -4.6096    0.0617  -17.2561 H   0  0  0  0  0  0  0  0  0  0  0  0
   -7.9118   -1.8401  -18.8397 H   0  0  0  0  0  0  0  0  0  0  0  0
   -7.0989   -2.4627  -22.2149 C   0  0  0  0  0  0  0  0  0  0  0  0
   -8.4585   -3.0007  -22.6987 C   0  0  2  0  0  0  0  0  0  0  0  0
   -8.3195   -3.8969  -23.9245 C   0  0  0  0  0  0  0  0  0  0  0  0
   -7.3195   -5.3343  -23.5975 S   0  0  0  0  0  0  0  0  0  0  0  0
   -7.9806   -6.1520  -22.5839 O   0  0  0  0  0  0  0  0  0  0  0  0
   -5.9288   -4.9374  -23.4289 O   0  0  0  0  0  0  0  0  0  0  0  0
   -7.4019   -6.0708  -25.0914 N   0  0  0  0  0  0  0  0  0  0  0  0
   -8.5856   -6.8798  -25.3726 C   0  0  0  0  0  0  0  0  0  0  0  0
   -8.9047   -7.4517  -24.4965 H   0  0  0  0  0  0  0  0  0  0  0  0
   -8.3227   -7.5624  -26.1827 H   0  0  0  0  0  0  0  0  0  0  0  0
   -9.4175   -6.2490  -25.7039 H   0  0  0  0  0  0  0  0  0  0  0  0
   -6.5253   -6.5558  -25.2382 H   0  0  0  0  0  0  0  0  0  0  0  0
   -9.2939   -4.2691  -24.2541 H   0  0  0  0  0  0  0  0  0  0  0  0
   -7.8133   -3.3911  -24.7555 H   0  0  0  0  0  0  0  0  0  0  0  0
   -8.8786   -3.5997  -21.8841 H   0  0  0  0  0  0  0  0  0  0  0  0
   -6.4529   -2.2043  -23.0689 H   0  0  0  0  0  0  0  0  0  0  0  0
   -6.5548   -3.1769  -21.5979 H   0  0  0  0  0  0  0  0  0  0  0  0
  -10.8422   -1.8226  -22.6935 C   0  0  0  0  0  0  0  0  0  0  0  0
  -11.4143   -2.7430  -21.8069 C   0  0  0  0  0  0  0  0  0  0  0  0
  -12.7777   -2.6992  -21.5525 C   0  0  0  0  0  0  0  0  0  0  0  0
  -13.5105   -3.7780  -20.4139 Cl  0  0  0  0  0  0  0  0  0  0  0  0
  -13.6177   -1.7694  -22.1548 C   0  0  0  0  0  0  0  0  0  0  0  0
  -13.0695   -0.8668  -23.0352 C   0  0  0  0  0  0  0  0  0  0  0  0
  -11.7010   -0.8832  -23.2959 C   0  0  0  0  0  0  0  0  0  0  0  0
  -11.1997    0.1847  -24.2163 C   0  0  0  0  0  0  0  0  0  0  0  0
  -11.9283    1.0624  -24.6607 O   0  0  0  0  0  0  0  0  0  0  0  0
  -13.6793   -0.1171  -23.5259 H   0  0  0  0  0  0  0  0  0  0  0  0
  -14.6778   -1.7771  -21.9251 H   0  0  0  0  0  0  0  0  0  0  0  0
  -10.7980   -3.4900  -21.3189 H   0  0  0  0  0  0  0  0  0  0  0  0
   -8.0311   -0.8163  -24.3745 H   0  0  0  0  0  0  0  0  0  0  0  0
   -9.3447   -1.8096  -25.0334 H   0  0  0  0  0  0  0  0  0  0  0  0
  -10.0295    2.0078  -25.2775 H   0  0  0  0  0  0  0  0  0  0  0  0
   -8.9010    0.9814  -26.1853 H   0  0  0  0  0  0  0  0  0  0  0  0
   -9.4447    2.0130  -22.8314 H   0  0  0  0  0  0  0  0  0  0  0  0
   -6.5556    2.3976  -22.4623 H   0  0  0  0  0  0  0  0  0  0  0  0
   -7.6348    1.6706  -21.2594 H   0  0  0  0  0  0  0  0  0  0  0  0
   -7.6942    3.4234  -21.5556 H   0  0  0  0  0  0  0  0  0  0  0  0
  1  2  1  0
  2  3  1  0
  3  4  2  0
  3  5  1  0
  5  6  1  0
  6  7  1  0
  8  7  1  6
  8  9  1  0
  9 10  2  0
  9 11  1  0
 11 12  1  0
 12 13  2  0
 13 14  1  0
 14 15  2  0
 15 16  1  0
 16 17  2  0
 17 18  1  0
 18 19  2  0
 19 20  1  0
 20 21  2  0
 20 22  1  0
 19 23  1  0
 18 24  1  0
 17 25  1  0
 15 26  1  0
 13 27  1  0
 11 28  1  0
 28 29  1  0
 29 30  1  0
 30 31  1  0
 31 32  2  0
 31 33  2  0
 31 34  1  0
 34 35  1  0
 35 36  1  0
 35 37  1  0
 35 38  1  0
 34 39  1  0
 30 40  1  0
 30 41  1  0
 29 42  1  1
 28 43  1  0
 28 44  1  0
  8 45  1  0
 45 46  2  0
 46 47  1  0
 47 48  1  0
 47 49  2  0
 49 50  1  0
 50 51  2  0
 51 52  1  0
 52 53  2  0
 50 54  1  0
 49 55  1  0
 46 56  1  0
  7 57  1  0
  7 58  1  0
  5 59  1  0
  5 60  1  0
  2 61  1  0
  1 62  1  0
  1 63  1  0
  1 64  1  0
 52  6  1  0
 29  8  1  0
 51 45  1  0
 21 12  1  0
 21 16  1  0
M  END
>  <cnnaffinities>  (28) 
[6.73506]

>  <score>  (28) 
6.73506

>  <index>  (28) 
28

>  <Smiles>  (28) 
C(N(C(=O)C(N1C([C@@]2(C(=O)N(c3c(nc(c4c(c(c(c(c34)[H])[H])[H])[H])[H])[H])C([C@@]2(C(S(=O)(=O)N(C([H])([H])[H])[H])([H])[H])[H])([H])[H])c2c(c(Cl)c(c(c2C1=O)[H])[H])[H])([H])[H])([H])[H])[H])([H])([H])[H]

>  <h>  (28) 
<NA>

>  <Training>  (28) 
True

>  <Success>  (28) 
True

>  <enamine_searched>  (28) 
False

>  <enamine_id>  (28) 
nan

$$$$

     RDKit          3D

 55 60  0  0  0  0  0  0  0  0999 V2000
  -10.4469   -1.0442  -23.3454 C   0  0  0  0  0  0  0  0  0  0  0  0
   -9.0133   -1.4301  -23.0014 C   0  0  1  0  0  0  0  0  0  0  0  0
   -8.3844   -0.5118  -21.9394 C   0  0  0  0  0  0  0  0  0  0  0  0
   -7.4018   -1.3740  -21.3003 N   0  0  0  0  0  0  0  0  0  0  0  0
   -6.5760   -0.9466  -20.2416 C   0  0  0  0  0  0  0  0  0  0  0  0
   -6.8744   -1.2868  -18.9483 C   0  0  0  0  0  0  0  0  0  0  0  0
   -6.1222   -0.9267  -17.8831 N   0  0  0  0  0  0  0  0  0  0  0  0
   -5.0716   -0.1744  -18.1060 C   0  0  0  0  0  0  0  0  0  0  0  0
   -4.6930    0.2985  -19.3951 C   0  0  0  0  0  0  0  0  0  0  0  0
   -3.6039    1.1852  -19.5902 C   0  0  0  0  0  0  0  0  0  0  0  0
   -3.2435    1.5652  -20.8538 C   0  0  0  0  0  0  0  0  0  0  0  0
   -3.9458    1.0758  -21.9798 C   0  0  0  0  0  0  0  0  0  0  0  0
   -5.0275    0.2466  -21.8153 C   0  0  0  0  0  0  0  0  0  0  0  0
   -5.4401   -0.1308  -20.5107 C   0  0  0  0  0  0  0  0  0  0  0  0
   -5.5773   -0.1328  -22.6711 H   0  0  0  0  0  0  0  0  0  0  0  0
   -3.6275    1.3595  -22.9783 H   0  0  0  0  0  0  0  0  0  0  0  0
   -2.4076    2.2425  -21.0050 H   0  0  0  0  0  0  0  0  0  0  0  0
   -3.0858    1.5616  -18.7124 H   0  0  0  0  0  0  0  0  0  0  0  0
   -4.4583    0.0937  -17.2442 H   0  0  0  0  0  0  0  0  0  0  0  0
   -7.7619   -1.8762  -18.7225 H   0  0  0  0  0  0  0  0  0  0  0  0
   -7.6792   -2.7167  -21.4552 C   0  0  0  0  0  0  0  0  0  0  0  0
   -7.0897   -3.6125  -20.8858 O   0  0  0  0  0  0  0  0  0  0  0  0
   -8.8443   -2.8818  -22.4284 C   0  0  1  0  0  0  0  0  0  0  0  0
  -10.0664   -3.3414  -21.5976 C   0  0  0  0  0  0  0  0  0  0  0  0
  -11.1634   -3.8113  -22.4187 N   0  0  0  0  0  0  0  0  0  0  0  0
  -12.5296   -3.7307  -21.9193 C   0  0  0  0  0  0  0  0  0  0  0  0
  -13.3593   -2.5945  -22.4384 C   0  0  0  0  0  0  0  0  0  0  0  0
  -14.0661   -2.4894  -23.6471 C   0  0  0  0  0  0  0  0  0  0  0  0
  -14.7689   -1.3617  -23.6490 N   0  0  0  0  0  0  0  0  0  0  0  0
  -14.4660   -0.8329  -22.4815 N   0  0  0  0  0  0  0  0  0  0  0  0
  -13.6601   -1.5307  -21.7000 N   0  0  0  0  0  0  0  0  0  0  0  0
  -14.9457   -0.0163  -22.1307 H   0  0  0  0  0  0  0  0  0  0  0  0
  -14.1141   -3.1944  -24.4634 H   0  0  0  0  0  0  0  0  0  0  0  0
  -12.5399   -3.6683  -20.8275 H   0  0  0  0  0  0  0  0  0  0  0  0
  -13.0380   -4.6424  -22.2407 H   0  0  0  0  0  0  0  0  0  0  0  0
  -10.9777   -4.5045  -23.5808 C   0  0  0  0  0  0  0  0  0  0  0  0
  -11.9360   -4.8831  -24.2499 O   0  0  0  0  0  0  0  0  0  0  0  0
   -9.5608   -4.7463  -23.9819 C   0  0  0  0  0  0  0  0  0  0  0  0
   -9.2856   -5.7576  -24.9016 C   0  0  0  0  0  0  0  0  0  0  0  0
   -8.0066   -5.9232  -25.3991 C   0  0  0  0  0  0  0  0  0  0  0  0
   -7.0155   -5.0544  -24.9553 C   0  0  0  0  0  0  0  0  0  0  0  0
   -5.7785   -5.1821  -25.4611 F   0  0  0  0  0  0  0  0  0  0  0  0
   -7.2442   -4.0960  -23.9862 C   0  0  0  0  0  0  0  0  0  0  0  0
   -8.5393   -3.9360  -23.4752 C   0  0  0  0  0  0  0  0  0  0  0  0
   -6.4071   -3.5253  -23.5975 H   0  0  0  0  0  0  0  0  0  0  0  0
   -7.7708   -6.6992  -26.1194 H   0  0  0  0  0  0  0  0  0  0  0  0
  -10.0969   -6.4133  -25.2061 H   0  0  0  0  0  0  0  0  0  0  0  0
  -10.4558   -2.5115  -21.0058 H   0  0  0  0  0  0  0  0  0  0  0  0
   -9.7364   -4.1050  -20.8860 H   0  0  0  0  0  0  0  0  0  0  0  0
   -9.1403   -0.1631  -21.2179 H   0  0  0  0  0  0  0  0  0  0  0  0
   -7.9189    0.3834  -22.3639 H   0  0  0  0  0  0  0  0  0  0  0  0
   -8.3861   -1.3862  -23.9013 H   0  0  0  0  0  0  0  0  0  0  0  0
  -10.5052   -0.0729  -23.8441 H   0  0  0  0  0  0  0  0  0  0  0  0
  -10.9055   -1.8036  -23.9882 H   0  0  0  0  0  0  0  0  0  0  0  0
  -11.0383   -0.9783  -22.4267 H   0  0  0  0  0  0  0  0  0  0  0  0
  1  2  1  0
  2  3  1  0
  3  4  1  0
  4  5  1  0
  5  6  2  0
  6  7  1  0
  7  8  2  0
  8  9  1  0
  9 10  2  0
 10 11  1  0
 11 12  2  0
 12 13  1  0
 13 14  2  0
 13 15  1  0
 12 16  1  0
 11 17  1  0
 10 18  1  0
  8 19  1  0
  6 20  1  0
  4 21  1  0
 21 22  2  0
 21 23  1  0
 23 24  1  1
 24 25  1  0
 25 26  1  0
 26 27  1  0
 27 28  1  0
 28 29  2  0
 29 30  1  0
 30 31  1  0
 30 32  1  0
 28 33  1  0
 26 34  1  0
 26 35  1  0
 25 36  1  0
 36 37  2  0
 36 38  1  0
 38 39  2  0
 39 40  1  0
 40 41  2  0
 41 42  1  0
 41 43  1  0
 43 44  2  0
 43 45  1  0
 40 46  1  0
 39 47  1  0
 24 48  1  0
 24 49  1  0
  3 50  1  0
  3 51  1  0
  2 52  1  6
  1 53  1  0
  1 54  1  0
  1 55  1  0
 23  2  1  0
 31 27  2  0
 44 38  1  0
 14  5  1  0
 44 23  1  0
 14  9  1  0
M  END
>  <cnnaffinities>  (29) 
[6.91639]

>  <score>  (29) 
6.91639

>  <index>  (29) 
29

>  <Smiles>  (29) 
C([C@]1(C(N(c2c(nc(c3c(c(c(c(c23)[H])[H])[H])[H])[H])[H])C(=O)[C@]21C(N(C(c1c(nn(n1)[H])[H])([H])[H])C(=O)c1c(c(c(F)c(c21)[H])[H])[H])([H])[H])([H])[H])[H])([H])([H])[H]

>  <h>  (29) 
<NA>

>  <Training>  (29) 
True

>  <Success>  (29) 
True

>  <enamine_searched>  (29) 
False

>  <enamine_id>  (29) 
nan

$$$$

     RDKit          3D

 58 63  0  0  0  0  0  0  0  0999 V2000
  -10.4417   -1.0038  -23.3745 C   0  0  0  0  0  0  0  0  0  0  0  0
   -9.0204   -1.4197  -22.9997 C   0  0  1  0  0  0  0  0  0  0  0  0
   -8.3844   -0.5105  -21.9328 C   0  0  0  0  0  0  0  0  0  0  0  0
   -7.4141   -1.3822  -21.2870 N   0  0  0  0  0  0  0  0  0  0  0  0
   -6.5732   -0.9577  -20.2335 C   0  0  0  0  0  0  0  0  0  0  0  0
   -6.8646   -1.2909  -18.9351 C   0  0  0  0  0  0  0  0  0  0  0  0
   -6.1229   -0.9061  -17.8701 N   0  0  0  0  0  0  0  0  0  0  0  0
   -5.0795   -0.1472  -18.1013 C   0  0  0  0  0  0  0  0  0  0  0  0
   -4.6890    0.3043  -19.3938 C   0  0  0  0  0  0  0  0  0  0  0  0
   -3.5940    1.1848  -19.5912 C   0  0  0  0  0  0  0  0  0  0  0  0
   -3.2370    1.5680  -20.8544 C   0  0  0  0  0  0  0  0  0  0  0  0
   -3.9458    1.0798  -21.9766 C   0  0  0  0  0  0  0  0  0  0  0  0
   -5.0239    0.2454  -21.8094 C   0  0  0  0  0  0  0  0  0  0  0  0
   -5.4369   -0.1356  -20.5064 C   0  0  0  0  0  0  0  0  0  0  0  0
   -5.5733   -0.1375  -22.6637 H   0  0  0  0  0  0  0  0  0  0  0  0
   -3.6315    1.3651  -22.9755 H   0  0  0  0  0  0  0  0  0  0  0  0
   -2.4002    2.2441  -21.0074 H   0  0  0  0  0  0  0  0  0  0  0  0
   -3.0675    1.5506  -18.7136 H   0  0  0  0  0  0  0  0  0  0  0  0
   -4.4803    0.1437  -17.2393 H   0  0  0  0  0  0  0  0  0  0  0  0
   -7.7405   -1.8931  -18.7018 H   0  0  0  0  0  0  0  0  0  0  0  0
   -7.7191   -2.7184  -21.4340 C   0  0  0  0  0  0  0  0  0  0  0  0
   -7.1315   -3.6124  -20.8527 O   0  0  0  0  0  0  0  0  0  0  0  0
   -8.8758   -2.8737  -22.4280 C   0  0  1  0  0  0  0  0  0  0  0  0
  -10.1158   -3.3150  -21.6208 C   0  0  0  0  0  0  0  0  0  0  0  0
  -11.2196   -3.7748  -22.4560 N   0  0  0  0  0  0  0  0  0  0  0  0
  -12.5932   -3.6929  -21.9487 C   0  0  0  0  0  0  0  0  0  0  0  0
  -13.5100   -2.7269  -22.6636 C   0  0  0  0  0  0  0  0  0  0  0  0
  -14.0677   -1.6209  -22.0906 C   0  0  0  0  0  0  0  0  0  0  0  0
  -14.9542   -0.7820  -22.8632 C   0  0  0  0  0  0  0  0  0  0  0  0
  -15.6476    0.1502  -22.5108 O   0  0  0  0  0  0  0  0  0  0  0  0
  -14.9703   -1.1570  -24.2217 N   0  0  0  0  0  0  0  0  0  0  0  0
  -14.5221   -2.3500  -24.6689 C   0  0  0  0  0  0  0  0  0  0  0  0
  -13.8233   -3.1462  -23.9424 N   0  0  0  0  0  0  0  0  0  0  0  0
  -14.7650   -2.5996  -25.7043 H   0  0  0  0  0  0  0  0  0  0  0  0
  -15.6422   -0.6487  -24.7709 H   0  0  0  0  0  0  0  0  0  0  0  0
  -13.9296   -1.3546  -21.0506 H   0  0  0  0  0  0  0  0  0  0  0  0
  -13.0577   -4.6500  -22.1666 H   0  0  0  0  0  0  0  0  0  0  0  0
  -12.5726   -3.4967  -20.8714 H   0  0  0  0  0  0  0  0  0  0  0  0
  -10.9724   -4.6480  -23.4886 C   0  0  0  0  0  0  0  0  0  0  0  0
  -11.8611   -5.2845  -24.0371 O   0  0  0  0  0  0  0  0  0  0  0  0
   -9.5551   -4.7759  -23.9425 C   0  0  0  0  0  0  0  0  0  0  0  0
   -9.2638   -5.7559  -24.8927 C   0  0  0  0  0  0  0  0  0  0  0  0
   -7.9871   -5.8933  -25.4034 C   0  0  0  0  0  0  0  0  0  0  0  0
   -7.0021   -5.0263  -24.9422 C   0  0  0  0  0  0  0  0  0  0  0  0
   -5.7549   -5.1423  -25.4293 F   0  0  0  0  0  0  0  0  0  0  0  0
   -7.2540   -4.0684  -23.9785 C   0  0  0  0  0  0  0  0  0  0  0  0
   -8.5528   -3.9270  -23.4674 C   0  0  0  0  0  0  0  0  0  0  0  0
   -6.4234   -3.4866  -23.5896 H   0  0  0  0  0  0  0  0  0  0  0  0
   -7.7285   -6.6643  -26.1230 H   0  0  0  0  0  0  0  0  0  0  0  0
  -10.0580   -6.4226  -25.2131 H   0  0  0  0  0  0  0  0  0  0  0  0
   -9.7969   -4.0984  -20.9270 H   0  0  0  0  0  0  0  0  0  0  0  0
  -10.4454   -2.4660  -21.0157 H   0  0  0  0  0  0  0  0  0  0  0  0
   -9.1357   -0.1485  -21.2123 H   0  0  0  0  0  0  0  0  0  0  0  0
   -7.9065    0.3766  -22.3607 H   0  0  0  0  0  0  0  0  0  0  0  0
   -8.3826   -1.3893  -23.8926 H   0  0  0  0  0  0  0  0  0  0  0  0
  -11.0838   -0.9723  -22.4862 H   0  0  0  0  0  0  0  0  0  0  0  0
  -10.8799   -1.7272  -24.0672 H   0  0  0  0  0  0  0  0  0  0  0  0
  -10.4685   -0.0129  -23.8373 H   0  0  0  0  0  0  0  0  0  0  0  0
  1  2  1  0
  2  3  1  0
  3  4  1  0
  4  5  1  0
  5  6  2  0
  6  7  1  0
  7  8  2  0
  8  9  1  0
  9 10  2  0
 10 11  1  0
 11 12  2  0
 12 13  1  0
 13 14  2  0
 13 15  1  0
 12 16  1  0
 11 17  1  0
 10 18  1  0
  8 19  1  0
  6 20  1  0
  4 21  1  0
 21 22  2  0
 21 23  1  0
 23 24  1  1
 24 25  1  0
 25 26  1  0
 26 27  1  0
 27 28  2  0
 28 29  1  0
 29 30  2  0
 29 31  1  0
 31 32  1  0
 32 33  2  0
 32 34  1  0
 31 35  1  0
 28 36  1  0
 26 37  1  0
 26 38  1  0
 25 39  1  0
 39 40  2  0
 39 41  1  0
 41 42  2  0
 42 43  1  0
 43 44  2  0
 44 45  1  0
 44 46  1  0
 46 47  2  0
 46 48  1  0
 43 49  1  0
 42 50  1  0
 24 51  1  0
 24 52  1  0
  3 53  1  0
  3 54  1  0
  2 55  1  6
  1 56  1  0
  1 57  1  0
  1 58  1  0
 23  2  1  0
 33 27  1  0
 47 41  1  0
 14  5  1  0
 47 23  1  0
 14  9  1  0
M  END
>  <cnnaffinities>  (30) 
[6.53513, 6.63482]

>  <score>  (30) 
6.53513

>  <index>  (30) 
30

>  <Smiles>  (30) 
C([C@]1(C(N(c2c(nc(c3c(c(c(c(c23)[H])[H])[H])[H])[H])[H])C(=O)[C@]21C(N(C(c1c(c(=O)n(c(n1)[H])[H])[H])([H])[H])C(=O)c1c(c(c(F)c(c21)[H])[H])[H])([H])[H])([H])[H])[H])([H])([H])[H]

>  <h>  (30) 
<NA>

>  <Training>  (30) 
True

>  <Success>  (30) 
True

>  <enamine_searched>  (30) 
False

>  <enamine_id>  (30) 
nan

$$$$

     RDKit          3D

 66 71  0  0  0  0  0  0  0  0999 V2000
   -7.7445   -6.0979  -26.6635 C   0  0  0  0  0  0  0  0  0  0  0  0
   -7.8741   -4.6923  -26.9989 N   0  0  0  0  0  0  0  0  0  0  0  0
   -6.9954   -3.7673  -26.5446 C   0  0  0  0  0  0  0  0  0  0  0  0
   -5.9615   -4.0262  -25.9390 O   0  0  0  0  0  0  0  0  0  0  0  0
   -7.4527   -2.3214  -26.7726 C   0  0  0  0  0  0  0  0  0  0  0  0
   -8.3823   -1.8938  -25.7286 N   0  0  0  0  0  0  0  0  0  0  0  0
   -7.8680   -1.3450  -24.4780 C   0  0  0  0  0  0  0  0  0  0  0  0
   -8.7539   -1.6272  -23.2231 C   0  0  2  0  0  0  0  0  0  0  0  0
   -8.2060   -0.6790  -22.1393 C   0  0  0  0  0  0  0  0  0  0  0  0
   -8.3630    0.5232  -22.0744 O   0  0  0  0  0  0  0  0  0  0  0  0
   -7.4260   -1.4206  -21.2639 N   0  0  0  0  0  0  0  0  0  0  0  0
   -6.6106   -0.8896  -20.2348 C   0  0  0  0  0  0  0  0  0  0  0  0
   -6.8775   -1.2439  -18.9350 C   0  0  0  0  0  0  0  0  0  0  0  0
   -6.1324   -0.8900  -17.8646 N   0  0  0  0  0  0  0  0  0  0  0  0
   -5.0723   -0.1542  -18.0919 C   0  0  0  0  0  0  0  0  0  0  0  0
   -4.6797    0.2980  -19.3822 C   0  0  0  0  0  0  0  0  0  0  0  0
   -3.5513    1.1438  -19.5532 C   0  0  0  0  0  0  0  0  0  0  0  0
   -3.1710    1.5423  -20.8039 C   0  0  0  0  0  0  0  0  0  0  0  0
   -3.8796    1.0907  -21.9383 C   0  0  0  0  0  0  0  0  0  0  0  0
   -4.9822    0.2862  -21.7949 C   0  0  0  0  0  0  0  0  0  0  0  0
   -5.4391   -0.1039  -20.5037 C   0  0  0  0  0  0  0  0  0  0  0  0
   -5.5152   -0.0490  -22.6777 H   0  0  0  0  0  0  0  0  0  0  0  0
   -3.5505    1.3929  -22.9278 H   0  0  0  0  0  0  0  0  0  0  0  0
   -2.3268    2.2122  -20.9366 H   0  0  0  0  0  0  0  0  0  0  0  0
   -3.0222    1.4816  -18.6657 H   0  0  0  0  0  0  0  0  0  0  0  0
   -4.4621    0.1068  -17.2296 H   0  0  0  0  0  0  0  0  0  0  0  0
   -7.7526   -1.8538  -18.7177 H   0  0  0  0  0  0  0  0  0  0  0  0
   -7.3333   -2.8299  -21.5991 C   0  0  0  0  0  0  0  0  0  0  0  0
   -8.5224   -3.0098  -22.5440 C   0  0  2  0  0  0  0  0  0  0  0  0
   -8.4283   -4.1636  -23.5367 C   0  0  0  0  0  0  0  0  0  0  0  0
   -8.3637   -5.4789  -22.9286 N   0  0  0  0  0  0  0  0  0  0  0  0
   -7.1914   -5.9898  -22.4445 C   0  0  0  0  0  0  0  0  0  0  0  0
   -5.9439   -5.6932  -23.0223 C   0  0  0  0  0  0  0  0  0  0  0  0
   -4.8411   -6.2708  -22.4264 C   0  0  0  0  0  0  0  0  0  0  0  0
   -4.9115   -7.0357  -21.3320 N   0  0  0  0  0  0  0  0  0  0  0  0
   -6.1409   -7.2565  -20.8938 C   0  0  0  0  0  0  0  0  0  0  0  0
   -7.2875   -6.8089  -21.3879 N   0  0  0  0  0  0  0  0  0  0  0  0
   -6.2102   -7.8713  -19.9994 H   0  0  0  0  0  0  0  0  0  0  0  0
   -3.8390   -6.1011  -22.8176 H   0  0  0  0  0  0  0  0  0  0  0  0
   -5.8635   -5.0454  -23.8935 H   0  0  0  0  0  0  0  0  0  0  0  0
   -9.1432   -5.6848  -22.3179 H   0  0  0  0  0  0  0  0  0  0  0  0
   -9.3219   -4.1358  -24.1708 H   0  0  0  0  0  0  0  0  0  0  0  0
   -7.5580   -4.0406  -24.1770 H   0  0  0  0  0  0  0  0  0  0  0  0
   -9.4064   -3.1923  -21.9104 H   0  0  0  0  0  0  0  0  0  0  0  0
   -7.4209   -3.4315  -20.6892 H   0  0  0  0  0  0  0  0  0  0  0  0
   -6.3577   -3.0692  -22.0629 H   0  0  0  0  0  0  0  0  0  0  0  0
  -10.2236   -1.4734  -23.5875 C   0  0  0  0  0  0  0  0  0  0  0  0
  -11.2078   -1.2866  -22.6038 C   0  0  0  0  0  0  0  0  0  0  0  0
  -12.5484   -1.2366  -22.9655 C   0  0  0  0  0  0  0  0  0  0  0  0
  -13.7904   -1.0629  -21.7695 Cl  0  0  0  0  0  0  0  0  0  0  0  0
  -12.9580   -1.3439  -24.2925 C   0  0  0  0  0  0  0  0  0  0  0  0
  -11.9955   -1.5864  -25.2507 C   0  0  0  0  0  0  0  0  0  0  0  0
  -10.6500   -1.6988  -24.9015 C   0  0  0  0  0  0  0  0  0  0  0  0
   -9.6889   -2.1955  -25.9252 C   0  0  0  0  0  0  0  0  0  0  0  0
  -10.0586   -2.8658  -26.8952 O   0  0  0  0  0  0  0  0  0  0  0  0
  -12.2597   -1.7103  -26.2927 H   0  0  0  0  0  0  0  0  0  0  0  0
  -14.0165   -1.2910  -24.5435 H   0  0  0  0  0  0  0  0  0  0  0  0
  -10.9451   -1.2127  -21.5545 H   0  0  0  0  0  0  0  0  0  0  0  0
   -7.7750   -0.2547  -24.5691 H   0  0  0  0  0  0  0  0  0  0  0  0
   -6.8650   -1.7727  -24.3223 H   0  0  0  0  0  0  0  0  0  0  0  0
   -6.5902   -1.6545  -26.8090 H   0  0  0  0  0  0  0  0  0  0  0  0
   -7.9896   -2.2705  -27.7198 H   0  0  0  0  0  0  0  0  0  0  0  0
   -8.7994   -4.3391  -27.2237 H   0  0  0  0  0  0  0  0  0  0  0  0
   -7.5588   -6.2380  -25.5886 H   0  0  0  0  0  0  0  0  0  0  0  0
   -8.6821   -6.5900  -26.9263 H   0  0  0  0  0  0  0  0  0  0  0  0
   -6.9373   -6.5670  -27.2324 H   0  0  0  0  0  0  0  0  0  0  0  0
  1  2  1  0
  2  3  1  0
  3  4  2  0
  3  5  1  0
  5  6  1  0
  6  7  1  0
  8  7  1  6
  8  9  1  0
  9 10  2  0
  9 11  1  0
 11 12  1  0
 12 13  2  0
 13 14  1  0
 14 15  2  0
 15 16  1  0
 16 17  2  0
 17 18  1  0
 18 19  2  0
 19 20  1  0
 20 21  2  0
 20 22  1  0
 19 23  1  0
 18 24  1  0
 17 25  1  0
 15 26  1  0
 13 27  1  0
 11 28  1  0
 28 29  1  0
 29 30  1  0
 30 31  1  0
 31 32  1  0
 32 33  2  0
 33 34  1  0
 34 35  2  0
 35 36  1  0
 36 37  2  0
 36 38  1  0
 34 39  1  0
 33 40  1  0
 31 41  1  0
 30 42  1  0
 30 43  1  0
 29 44  1  1
 28 45  1  0
 28 46  1  0
  8 47  1  0
 47 48  2  0
 48 49  1  0
 49 50  1  0
 49 51  2  0
 51 52  1  0
 52 53  2  0
 53 54  1  0
 54 55  2  0
 52 56  1  0
 51 57  1  0
 48 58  1  0
  7 59  1  0
  7 60  1  0
  5 61  1  0
  5 62  1  0
  2 63  1  0
  1 64  1  0
  1 65  1  0
  1 66  1  0
 54  6  1  0
 29  8  1  0
 37 32  1  0
 53 47  1  0
 21 12  1  0
 21 16  1  0
M  END
>  <cnnaffinities>  (31) 
[6.11276, 6.60198]

>  <score>  (31) 
6.11276

>  <index>  (31) 
31

>  <Smiles>  (31) 
C(N(C(=O)C(N1C([C@@]2(C(=O)N(c3c(nc(c4c(c(c(c(c34)[H])[H])[H])[H])[H])[H])C([C@@]2(C(N(c2c(c(nc(n2)[H])[H])[H])[H])([H])[H])[H])([H])[H])c2c(c(Cl)c(c(c2C1=O)[H])[H])[H])([H])[H])([H])[H])[H])([H])([H])[H]

>  <h>  (31) 
<NA>

>  <Training>  (31) 
True

>  <Success>  (31) 
True

>  <enamine_searched>  (31) 
False

>  <enamine_id>  (31) 
nan

$$$$

     RDKit          3D

 57 62  0  0  0  0  0  0  0  0999 V2000
  -10.0732   -0.8419  -23.6943 C   0  0  0  0  0  0  0  0  0  0  0  0
   -8.7727   -1.3499  -23.0942 C   0  0  1  0  0  0  0  0  0  0  0  0
   -8.2218   -0.4796  -21.9623 C   0  0  0  0  0  0  0  0  0  0  0  0
   -7.2672   -1.3726  -21.3088 N   0  0  0  0  0  0  0  0  0  0  0  0
   -6.4206   -0.9904  -20.2414 C   0  0  0  0  0  0  0  0  0  0  0  0
   -6.6625   -1.4386  -18.9654 C   0  0  0  0  0  0  0  0  0  0  0  0
   -5.9480   -1.0716  -17.8750 N   0  0  0  0  0  0  0  0  0  0  0  0
   -4.9523   -0.2378  -18.0555 C   0  0  0  0  0  0  0  0  0  0  0  0
   -4.5732    0.2800  -19.3245 C   0  0  0  0  0  0  0  0  0  0  0  0
   -3.4787    1.1704  -19.4628 C   0  0  0  0  0  0  0  0  0  0  0  0
   -3.1182    1.6308  -20.6998 C   0  0  0  0  0  0  0  0  0  0  0  0
   -3.8412    1.2298  -21.8460 C   0  0  0  0  0  0  0  0  0  0  0  0
   -4.9162    0.3828  -21.7351 C   0  0  0  0  0  0  0  0  0  0  0  0
   -5.3164   -0.1061  -20.4626 C   0  0  0  0  0  0  0  0  0  0  0  0
   -5.4690    0.0807  -22.6189 H   0  0  0  0  0  0  0  0  0  0  0  0
   -3.5426    1.6019  -22.8213 H   0  0  0  0  0  0  0  0  0  0  0  0
   -2.2749    2.3048  -20.8102 H   0  0  0  0  0  0  0  0  0  0  0  0
   -2.9517    1.4815  -18.5649 H   0  0  0  0  0  0  0  0  0  0  0  0
   -4.3943    0.0740  -17.1718 H   0  0  0  0  0  0  0  0  0  0  0  0
   -7.4828   -2.1257  -18.7716 H   0  0  0  0  0  0  0  0  0  0  0  0
   -7.6017   -2.7025  -21.5080 C   0  0  0  0  0  0  0  0  0  0  0  0
   -7.0276   -3.6392  -20.9900 O   0  0  0  0  0  0  0  0  0  0  0  0
   -8.7955   -2.7846  -22.4807 C   0  0  1  0  0  0  0  0  0  0  0  0
  -10.0606   -3.0785  -21.6467 C   0  0  0  0  0  0  0  0  0  0  0  0
  -11.1977   -3.5561  -22.4214 N   0  0  0  0  0  0  0  0  0  0  0  0
  -12.5259   -3.4168  -21.8196 C   0  0  0  0  0  0  0  0  0  0  0  0
  -13.4223   -2.5941  -22.6717 C   0  0  0  0  0  0  0  0  0  0  0  0
  -14.1896   -3.1837  -23.5672 N   0  0  0  0  0  0  0  0  0  0  0  0
  -13.4871   -1.2472  -22.7645 N   0  0  0  0  0  0  0  0  0  0  0  0
  -14.2699   -0.9929  -23.7863 N   0  0  0  0  0  0  0  0  0  0  0  0
  -14.6627   -2.1595  -24.2464 N   0  0  0  0  0  0  0  0  0  0  0  0
  -15.2560   -2.4082  -25.5423 C   0  0  0  0  0  0  0  0  0  0  0  0
  -16.2111   -2.9146  -25.4023 H   0  0  0  0  0  0  0  0  0  0  0  0
  -15.3478   -1.4629  -26.0673 H   0  0  0  0  0  0  0  0  0  0  0  0
  -14.5748   -3.0656  -26.0808 H   0  0  0  0  0  0  0  0  0  0  0  0
  -12.4468   -3.0030  -20.8125 H   0  0  0  0  0  0  0  0  0  0  0  0
  -13.0089   -4.3908  -21.7969 H   0  0  0  0  0  0  0  0  0  0  0  0
  -11.0604   -4.4756  -23.4296 C   0  0  0  0  0  0  0  0  0  0  0  0
  -12.0026   -5.1263  -23.8614 O   0  0  0  0  0  0  0  0  0  0  0  0
   -9.6848   -4.6286  -23.9826 C   0  0  0  0  0  0  0  0  0  0  0  0
   -9.5098   -5.5822  -24.9833 C   0  0  0  0  0  0  0  0  0  0  0  0
   -8.2637   -5.7960  -25.5388 C   0  0  0  0  0  0  0  0  0  0  0  0
   -7.1951   -5.0535  -25.0482 C   0  0  0  0  0  0  0  0  0  0  0  0
   -5.9712   -5.2826  -25.5520 F   0  0  0  0  0  0  0  0  0  0  0  0
   -7.3427   -4.1035  -24.0562 C   0  0  0  0  0  0  0  0  0  0  0  0
   -8.6106   -3.8692  -23.5128 C   0  0  0  0  0  0  0  0  0  0  0  0
   -6.4690   -3.5835  -23.6788 H   0  0  0  0  0  0  0  0  0  0  0  0
   -8.1044   -6.5302  -26.3200 H   0  0  0  0  0  0  0  0  0  0  0  0
  -10.3885   -6.1493  -25.2770 H   0  0  0  0  0  0  0  0  0  0  0  0
  -10.3964   -2.1597  -21.1565 H   0  0  0  0  0  0  0  0  0  0  0  0
   -9.8018   -3.8077  -20.8706 H   0  0  0  0  0  0  0  0  0  0  0  0
   -9.0263   -0.1906  -21.2669 H   0  0  0  0  0  0  0  0  0  0  0  0
   -7.7577    0.4400  -22.3263 H   0  0  0  0  0  0  0  0  0  0  0  0
   -8.0116   -1.3976  -23.8851 H   0  0  0  0  0  0  0  0  0  0  0  0
  -10.8589   -0.7602  -22.9363 H   0  0  0  0  0  0  0  0  0  0  0  0
   -9.9230    0.1473  -24.1405 H   0  0  0  0  0  0  0  0  0  0  0  0
  -10.4341   -1.5216  -24.4738 H   0  0  0  0  0  0  0  0  0  0  0  0
  1  2  1  0
  2  3  1  0
  3  4  1  0
  4  5  1  0
  5  6  2  0
  6  7  1  0
  7  8  2  0
  8  9  1  0
  9 10  2  0
 10 11  1  0
 11 12  2  0
 12 13  1  0
 13 14  2  0
 13 15  1  0
 12 16  1  0
 11 17  1  0
 10 18  1  0
  8 19  1  0
  6 20  1  0
  4 21  1  0
 21 22  2  0
 21 23  1  0
 23 24  1  1
 24 25  1  0
 25 26  1  0
 26 27  1  0
 27 28  2  0
 28 29  1  0
 29 30  2  0
 30 31  1  0
 31 32  1  0
 32 33  1  0
 32 34  1  0
 32 35  1  0
 26 36  1  0
 26 37  1  0
 25 38  1  0
 38 39  2  0
 38 40  1  0
 40 41  2  0
 41 42  1  0
 42 43  2  0
 43 44  1  0
 43 45  1  0
 45 46  2  0
 45 47  1  0
 42 48  1  0
 41 49  1  0
 24 50  1  0
 24 51  1  0
  3 52  1  0
  3 53  1  0
  2 54  1  6
  1 55  1  0
  1 56  1  0
  1 57  1  0
 23  2  1  0
 31 27  1  0
 46 40  1  0
 14  5  1  0
 46 23  1  0
 14  9  1  0
M  END
>  <cnnaffinities>  (32) 
[6.86899]

>  <score>  (32) 
6.86899

>  <index>  (32) 
32

>  <Smiles>  (32) 
C([C@]1(C(N(c2c(nc(c3c(c(c(c(c23)[H])[H])[H])[H])[H])[H])C(=O)[C@]21C(N(C(c1nnnn1C([H])([H])[H])([H])[H])C(=O)c1c(c(c(F)c(c21)[H])[H])[H])([H])[H])([H])[H])[H])([H])([H])[H]

>  <h>  (32) 
<NA>

>  <Training>  (32) 
True

>  <Success>  (32) 
True

>  <enamine_searched>  (32) 
False

>  <enamine_id>  (32) 
nan

$$$$

     RDKit          3D

 66 70  0  0  0  0  0  0  0  0999 V2000
   -7.4512    3.3790  -21.7814 C   0  0  0  0  0  0  0  0  0  0  0  0
   -8.3437    2.9110  -22.8246 N   0  0  0  0  0  0  0  0  0  0  0  0
   -7.8021    2.2165  -23.8622 C   0  0  0  0  0  0  0  0  0  0  0  0
   -6.5957    2.0776  -23.9992 O   0  0  0  0  0  0  0  0  0  0  0  0
   -8.7969    1.6263  -24.8550 C   0  0  0  0  0  0  0  0  0  0  0  0
   -9.4641    0.4581  -24.3284 N   0  0  0  0  0  0  0  0  0  0  0  0
   -8.6981   -0.7615  -24.1677 C   0  0  0  0  0  0  0  0  0  0  0  0
   -9.0774   -1.5159  -22.8752 C   0  0  2  0  0  0  0  0  0  0  0  0
   -8.5619   -0.7523  -21.6393 C   0  0  0  0  0  0  0  0  0  0  0  0
   -9.0539    0.2229  -21.1122 O   0  0  0  0  0  0  0  0  0  0  0  0
   -7.4095   -1.3644  -21.2233 N   0  0  0  0  0  0  0  0  0  0  0  0
   -6.6154   -0.8288  -20.1934 C   0  0  0  0  0  0  0  0  0  0  0  0
   -6.9310   -1.1133  -18.8924 C   0  0  0  0  0  0  0  0  0  0  0  0
   -6.1584   -0.7725  -17.8395 N   0  0  0  0  0  0  0  0  0  0  0  0
   -5.0892   -0.0527  -18.0921 C   0  0  0  0  0  0  0  0  0  0  0  0
   -4.7140    0.4033  -19.3907 C   0  0  0  0  0  0  0  0  0  0  0  0
   -3.6183    1.2794  -19.6124 C   0  0  0  0  0  0  0  0  0  0  0  0
   -3.2543    1.6279  -20.8849 C   0  0  0  0  0  0  0  0  0  0  0  0
   -3.9754    1.1390  -21.9977 C   0  0  0  0  0  0  0  0  0  0  0  0
   -5.0702    0.3312  -21.8086 C   0  0  0  0  0  0  0  0  0  0  0  0
   -5.4722   -0.0367  -20.4951 C   0  0  0  0  0  0  0  0  0  0  0  0
   -5.6328   -0.0151  -22.6703 H   0  0  0  0  0  0  0  0  0  0  0  0
   -3.6662    1.4004  -23.0040 H   0  0  0  0  0  0  0  0  0  0  0  0
   -2.4024    2.2805  -21.0529 H   0  0  0  0  0  0  0  0  0  0  0  0
   -3.0934    1.6839  -18.7526 H   0  0  0  0  0  0  0  0  0  0  0  0
   -4.4512    0.2045  -17.2493 H   0  0  0  0  0  0  0  0  0  0  0  0
   -7.8564   -1.6435  -18.6785 H   0  0  0  0  0  0  0  0  0  0  0  0
   -7.0484   -2.5529  -21.9584 C   0  0  0  0  0  0  0  0  0  0  0  0
   -8.3130   -2.8664  -22.7681 C   0  0  2  0  0  0  0  0  0  0  0  0
   -7.9828   -3.6016  -24.0695 C   0  0  0  0  0  0  0  0  0  0  0  0
   -9.1362   -3.9137  -24.8167 O   0  0  0  0  0  0  0  0  0  0  0  0
   -9.6986   -5.1993  -24.5626 C   0  0  0  0  0  0  0  0  0  0  0  0
  -11.1948   -5.0511  -24.7500 C   0  0  0  0  0  0  0  0  0  0  0  0
  -11.7128   -6.0006  -24.5703 H   0  0  0  0  0  0  0  0  0  0  0  0
  -11.5944   -4.2922  -24.0709 H   0  0  0  0  0  0  0  0  0  0  0  0
  -11.3936   -4.7251  -25.7741 H   0  0  0  0  0  0  0  0  0  0  0  0
   -9.0987   -6.2389  -25.5036 C   0  0  0  0  0  0  0  0  0  0  0  0
   -9.5531   -7.2223  -25.3367 H   0  0  0  0  0  0  0  0  0  0  0  0
   -8.0183   -6.3365  -25.3576 H   0  0  0  0  0  0  0  0  0  0  0  0
   -9.2784   -5.9441  -26.5418 H   0  0  0  0  0  0  0  0  0  0  0  0
   -9.4894   -5.4939  -23.5221 H   0  0  0  0  0  0  0  0  0  0  0  0
   -7.4018   -4.5129  -23.8490 H   0  0  0  0  0  0  0  0  0  0  0  0
   -7.3543   -2.9662  -24.7063 H   0  0  0  0  0  0  0  0  0  0  0  0
   -8.9490   -3.5300  -22.1786 H   0  0  0  0  0  0  0  0  0  0  0  0
   -6.1795   -2.3737  -22.6109 H   0  0  0  0  0  0  0  0  0  0  0  0
   -6.7789   -3.3563  -21.2666 H   0  0  0  0  0  0  0  0  0  0  0  0
  -10.5835   -1.6172  -22.8225 C   0  0  0  0  0  0  0  0  0  0  0  0
  -11.1974   -2.5268  -21.9543 C   0  0  0  0  0  0  0  0  0  0  0  0
  -12.5768   -2.5484  -21.8477 C   0  0  0  0  0  0  0  0  0  0  0  0
  -13.3248   -3.6127  -20.6900 Cl  0  0  0  0  0  0  0  0  0  0  0  0
  -13.3934   -1.7116  -22.6110 C   0  0  0  0  0  0  0  0  0  0  0  0
  -12.7896   -0.7781  -23.4281 C   0  0  0  0  0  0  0  0  0  0  0  0
  -11.4018   -0.7038  -23.4997 C   0  0  0  0  0  0  0  0  0  0  0  0
  -10.8270    0.4564  -24.2463 C   0  0  0  0  0  0  0  0  0  0  0  0
  -11.5234    1.3469  -24.7098 O   0  0  0  0  0  0  0  0  0  0  0  0
  -13.3618   -0.0537  -23.9958 H   0  0  0  0  0  0  0  0  0  0  0  0
  -14.4724   -1.7818  -22.5151 H   0  0  0  0  0  0  0  0  0  0  0  0
  -10.6024   -3.1906  -21.3333 H   0  0  0  0  0  0  0  0  0  0  0  0
   -8.8880   -1.4329  -25.0129 H   0  0  0  0  0  0  0  0  0  0  0  0
   -7.6366   -0.4995  -24.1604 H   0  0  0  0  0  0  0  0  0  0  0  0
   -9.5846    2.3428  -25.1017 H   0  0  0  0  0  0  0  0  0  0  0  0
   -8.2298    1.3725  -25.7516 H   0  0  0  0  0  0  0  0  0  0  0  0
   -9.3006    2.7158  -22.5554 H   0  0  0  0  0  0  0  0  0  0  0  0
   -6.9758    2.5449  -21.2432 H   0  0  0  0  0  0  0  0  0  0  0  0
   -6.6526    3.9641  -22.2364 H   0  0  0  0  0  0  0  0  0  0  0  0
   -7.9802    4.0333  -21.0876 H   0  0  0  0  0  0  0  0  0  0  0  0
  1  2  1  0
  2  3  1  0
  3  4  2  0
  3  5  1  0
  5  6  1  0
  6  7  1  0
  8  7  1  6
  8  9  1  0
  9 10  2  0
  9 11  1  0
 11 12  1  0
 12 13  2  0
 13 14  1  0
 14 15  2  0
 15 16  1  0
 16 17  2  0
 17 18  1  0
 18 19  2  0
 19 20  1  0
 20 21  2  0
 20 22  1  0
 19 23  1  0
 18 24  1  0
 17 25  1  0
 15 26  1  0
 13 27  1  0
 11 28  1  0
 28 29  1  0
 29 30  1  0
 30 31  1  0
 31 32  1  0
 32 33  1  0
 33 34  1  0
 33 35  1  0
 33 36  1  0
 32 37  1  0
 37 38  1  0
 37 39  1  0
 37 40  1  0
 32 41  1  0
 30 42  1  0
 30 43  1  0
 29 44  1  1
 28 45  1  0
 28 46  1  0
  8 47  1  0
 47 48  2  0
 48 49  1  0
 49 50  1  0
 49 51  2  0
 51 52  1  0
 52 53  2  0
 53 54  1  0
 54 55  2  0
 52 56  1  0
 51 57  1  0
 48 58  1  0
  7 59  1  0
  7 60  1  0
  5 61  1  0
  5 62  1  0
  2 63  1  0
  1 64  1  0
  1 65  1  0
  1 66  1  0
 54  6  1  0
 29  8  1  0
 53 47  1  0
 21 12  1  0
 21 16  1  0
M  END
>  <cnnaffinities>  (33) 
[6.41929]

>  <score>  (33) 
6.41929

>  <index>  (33) 
34

>  <Smiles>  (33) 
C(N(C(=O)C(N1C([C@@]2(C(=O)N(c3c(nc(c4c(c(c(c(c34)[H])[H])[H])[H])[H])[H])C([C@@]2(C(OC(C([H])([H])[H])(C([H])([H])[H])[H])([H])[H])[H])([H])[H])c2c(c(Cl)c(c(c2C1=O)[H])[H])[H])([H])[H])([H])[H])[H])([H])([H])[H]

>  <h>  (33) 
<NA>

>  <Training>  (33) 
True

>  <Success>  (33) 
True

>  <enamine_searched>  (33) 
False

>  <enamine_id>  (33) 
nan

$$$$

     RDKit          3D

 40 42  0  0  0  0  0  0  0  0999 V2000
   -9.1851   -1.8942  -22.8179 O   0  0  0  0  0  0  0  0  0  0  0  0
   -8.2909   -1.1199  -22.4983 C   0  0  0  0  0  0  0  0  0  0  0  0
   -6.9405   -1.6757  -22.0305 C   0  0  0  0  0  0  0  0  0  0  0  0
   -6.3699   -1.0314  -20.7789 C   0  0  0  0  0  0  0  0  0  0  0  0
   -6.9796   -1.2492  -19.5657 C   0  0  0  0  0  0  0  0  0  0  0  0
   -6.4955   -0.8598  -18.3600 N   0  0  0  0  0  0  0  0  0  0  0  0
   -5.3792   -0.1721  -18.3650 C   0  0  0  0  0  0  0  0  0  0  0  0
   -4.6941    0.2217  -19.5448 C   0  0  0  0  0  0  0  0  0  0  0  0
   -3.5764    1.0901  -19.5039 C   0  0  0  0  0  0  0  0  0  0  0  0
   -3.0006    1.5350  -20.6604 C   0  0  0  0  0  0  0  0  0  0  0  0
   -3.4798    1.0843  -21.9100 C   0  0  0  0  0  0  0  0  0  0  0  0
   -4.5131    0.1787  -21.9751 C   0  0  0  0  0  0  0  0  0  0  0  0
   -5.1846   -0.2350  -20.7923 C   0  0  0  0  0  0  0  0  0  0  0  0
   -4.8234   -0.1963  -22.9504 H   0  0  0  0  0  0  0  0  0  0  0  0
   -3.0001    1.4348  -22.8202 H   0  0  0  0  0  0  0  0  0  0  0  0
   -2.1654    2.2264  -20.6308 H   0  0  0  0  0  0  0  0  0  0  0  0
   -3.2232    1.4202  -18.5319 H   0  0  0  0  0  0  0  0  0  0  0  0
   -4.9670    0.1200  -17.3992 H   0  0  0  0  0  0  0  0  0  0  0  0
   -7.9208   -1.7999  -19.5263 H   0  0  0  0  0  0  0  0  0  0  0  0
   -7.1165   -2.7399  -21.8279 H   0  0  0  0  0  0  0  0  0  0  0  0
   -6.2071   -1.6462  -22.8454 H   0  0  0  0  0  0  0  0  0  0  0  0
   -8.3701    0.2615  -22.5140 N   0  0  0  0  0  0  0  0  0  0  0  0
   -7.3944    1.1421  -23.2438 C   0  0  0  0  0  0  0  0  0  0  0  0
   -7.9399    2.4451  -23.7679 C   0  0  0  0  0  0  0  0  0  0  0  0
   -9.2030    2.8588  -23.7367 C   0  0  0  0  0  0  0  0  0  0  0  0
   -8.5097    5.5151  -23.0991 C   0  0  0  0  0  0  0  0  0  0  0  0
   -7.7661    5.1722  -22.0688 F   0  0  0  0  0  0  0  0  0  0  0  0
   -9.3369    6.4810  -22.7709 F   0  0  0  0  0  0  0  0  0  0  0  0
   -7.7590    5.8718  -24.1218 F   0  0  0  0  0  0  0  0  0  0  0  0
   -9.5375    1.0553  -22.0563 C   0  0  0  0  0  0  0  0  0  0  0  0
   -9.5580    0.8958  -21.8764 C   0  0  0  0  0  0  0  0  0  0  0  0
  -10.3154    0.5702  -22.8561 H   0  0  0  0  0  0  0  0  0  0  0  0
   -9.8698    0.0229  -20.6009 H   0  0  0  0  0  0  0  0  0  0  0  0
  -10.4302    1.8320  -21.7811 H   0  0  0  0  0  0  0  0  0  0  0  0
   -8.8012    1.8714  -21.5245 H   0  0  0  0  0  0  0  0  0  0  0  0
   -9.4183    3.9281  -23.7706 H   0  0  0  0  0  0  0  0  0  0  0  0
   -7.1504    3.0633  -24.1948 H   0  0  0  0  0  0  0  0  0  0  0  0
  -10.0042    2.1436  -23.7155 H   0  0  0  0  0  0  0  0  0  0  0  0
   -6.9885    0.5706  -24.0797 H   0  0  0  0  0  0  0  0  0  0  0  0
   -6.5777    1.3774  -22.5487 H   0  0  0  0  0  0  0  0  0  0  0  0
  1  2  2  0
  2  3  1  0
  3  4  1  0
  4  5  2  0
  5  6  1  0
  6  7  2  0
  7  8  1  0
  8  9  2  0
  9 10  1  0
 10 11  2  0
 11 12  1  0
 12 13  2  0
 12 14  1  0
 11 15  1  0
 10 16  1  0
  9 17  1  0
  7 18  1  0
  5 19  1  0
  3 20  1  0
  3 21  1  0
  2 22  1  0
 22 23  1  0
 23 24  1  0
 24 25  1  0
 25 26  1  0
 26 27  1  0
 26 28  1  0
 26 29  1  0
 25 30  1  0
 30 31  1  0
 31 32  1  0
 31 33  1  0
 30 34  1  0
 30 35  1  0
 25 36  1  0
 24 37  1  0
 24 38  1  0
 23 39  1  0
 23 40  1  0
 13  4  1  0
 31 22  1  0
 13  8  1  0
M  END
>  <cnnaffinities>  (34) 
[4.8209]

>  <score>  (34) 
4.8209

>  <index>  (34) 
35

>  <Smiles>  (34) 
O=C(C(c1c(nc(c2c(c(c(c(c12)[H])[H])[H])[H])[H])[H])([H])[H])N1C(C(C(C(F)(F)F)(C(C1([H])[H])([H])[H])[H])([H])[H])([H])[H]

>  <h>  (34) 
<NA>

>  <Training>  (34) 
True

>  <Success>  (34) 
True

>  <enamine_searched>  (34) 
False

>  <enamine_id>  (34) 
nan

$$$$

     RDKit          3D

 47 50  0  0  0  0  0  0  0  0999 V2000
   -8.6859    0.6160  -21.3604 O   0  0  0  0  0  0  0  0  0  0  0  0
   -8.3396   -0.3844  -21.9601 C   0  0  0  0  0  0  0  0  0  0  0  0
   -7.4369   -1.4330  -21.2789 C   0  0  0  0  0  0  0  0  0  0  0  0
   -6.5831   -0.8347  -20.1905 C   0  0  0  0  0  0  0  0  0  0  0  0
   -6.9000   -1.0467  -18.8765 C   0  0  0  0  0  0  0  0  0  0  0  0
   -6.1983   -0.5944  -17.8107 N   0  0  0  0  0  0  0  0  0  0  0  0
   -5.1280    0.1104  -18.0729 C   0  0  0  0  0  0  0  0  0  0  0  0
   -4.7178    0.5032  -19.3806 C   0  0  0  0  0  0  0  0  0  0  0  0
   -3.6020    1.3550  -19.6193 C   0  0  0  0  0  0  0  0  0  0  0  0
   -3.2137    1.6584  -20.8978 C   0  0  0  0  0  0  0  0  0  0  0  0
   -3.9324    1.1285  -21.9933 C   0  0  0  0  0  0  0  0  0  0  0  0
   -5.0250    0.3218  -21.7900 C   0  0  0  0  0  0  0  0  0  0  0  0
   -5.4587   -0.0045  -20.4785 C   0  0  0  0  0  0  0  0  0  0  0  0
   -5.5672   -0.0729  -22.6448 H   0  0  0  0  0  0  0  0  0  0  0  0
   -3.6143    1.3662  -23.0034 H   0  0  0  0  0  0  0  0  0  0  0  0
   -2.3490    2.2944  -21.0862 H   0  0  0  0  0  0  0  0  0  0  0  0
   -3.0625    1.7678  -18.7678 H   0  0  0  0  0  0  0  0  0  0  0  0
   -4.5368    0.3881  -17.1999 H   0  0  0  0  0  0  0  0  0  0  0  0
   -7.7480   -1.6633  -18.5937 H   0  0  0  0  0  0  0  0  0  0  0  0
   -8.0850   -2.1980  -20.8325 H   0  0  0  0  0  0  0  0  0  0  0  0
   -6.8056   -1.9540  -22.0114 H   0  0  0  0  0  0  0  0  0  0  0  0
   -8.6785   -0.6048  -23.2884 N   0  0  0  0  0  0  0  0  0  0  0  0
   -9.1605    0.5326  -24.0700 C   0  0  0  0  0  0  0  0  0  0  0  0
  -10.6762    0.5425  -24.2229 C   0  0  0  0  0  0  0  0  0  0  0  0
  -11.1717   -0.7912  -24.7686 C   0  0  0  0  0  0  0  0  0  0  0  0
  -10.6198   -1.9431  -23.9346 C   0  0  0  0  0  0  0  0  0  0  0  0
   -9.0830   -1.9125  -23.8234 C   0  0  1  0  0  0  0  0  0  0  0  0
   -8.3321   -2.2549  -25.1132 C   0  0  0  0  0  0  0  0  0  0  0  0
   -6.9755   -1.9279  -25.2104 C   0  0  0  0  0  0  0  0  0  0  0  0
   -6.2260   -2.2421  -26.3374 C   0  0  0  0  0  0  0  0  0  0  0  0
   -6.8147   -2.9053  -27.4069 C   0  0  0  0  0  0  0  0  0  0  0  0
   -8.1560   -3.2574  -27.3195 C   0  0  0  0  0  0  0  0  0  0  0  0
   -8.9046   -2.9418  -26.1869 C   0  0  0  0  0  0  0  0  0  0  0  0
   -9.9454   -3.2516  -26.1587 H   0  0  0  0  0  0  0  0  0  0  0  0
   -8.6292   -3.7885  -28.1404 H   0  0  0  0  0  0  0  0  0  0  0  0
   -6.2340   -3.1490  -28.2929 H   0  0  0  0  0  0  0  0  0  0  0  0
   -5.1772   -1.9648  -26.3820 H   0  0  0  0  0  0  0  0  0  0  0  0
   -6.4810   -1.4155  -24.3906 H   0  0  0  0  0  0  0  0  0  0  0  0
   -8.7917   -2.6571  -23.0749 H   0  0  0  0  0  0  0  0  0  0  0  0
  -10.9609   -2.9108  -24.3134 H   0  0  0  0  0  0  0  0  0  0  0  0
  -11.0262   -1.8736  -22.9195 H   0  0  0  0  0  0  0  0  0  0  0  0
  -10.8529   -0.9092  -25.8111 H   0  0  0  0  0  0  0  0  0  0  0  0
  -12.2666   -0.8152  -24.7737 H   0  0  0  0  0  0  0  0  0  0  0  0
  -10.9901    1.3650  -24.8781 H   0  0  0  0  0  0  0  0  0  0  0  0
  -11.1147    0.7403  -23.2407 H   0  0  0  0  0  0  0  0  0  0  0  0
   -8.8060    1.4514  -23.6023 H   0  0  0  0  0  0  0  0  0  0  0  0
   -8.7020    0.4743  -25.0616 H   0  0  0  0  0  0  0  0  0  0  0  0
  1  2  2  0
  2  3  1  0
  3  4  1  0
  4  5  2  0
  5  6  1  0
  6  7  2  0
  7  8  1  0
  8  9  2  0
  9 10  1  0
 10 11  2  0
 11 12  1  0
 12 13  2  0
 12 14  1  0
 11 15  1  0
 10 16  1  0
  9 17  1  0
  7 18  1  0
  5 19  1  0
  3 20  1  0
  3 21  1  0
  2 22  1  0
 22 23  1  0
 23 24  1  0
 24 25  1  0
 25 26  1  0
 26 27  1  0
 27 28  1  0
 28 29  2  0
 29 30  1  0
 30 31  2  0
 31 32  1  0
 32 33  2  0
 33 34  1  0
 32 35  1  0
 31 36  1  0
 30 37  1  0
 29 38  1  0
 27 39  1  1
 26 40  1  0
 26 41  1  0
 25 42  1  0
 25 43  1  0
 24 44  1  0
 24 45  1  0
 23 46  1  0
 23 47  1  0
 13  4  1  0
 27 22  1  0
 33 28  1  0
 13  8  1  0
M  END
>  <cnnaffinities>  (35) 
[5.21195, 5.21194, 4.98098, 4.98055, 5.58612, 5.58548, 5.52981, 5.5307]

>  <score>  (35) 
5.21195

>  <index>  (35) 
36

>  <Smiles>  (35) 
O=C(C(c1c(nc(c2c(c(c(c(c12)[H])[H])[H])[H])[H])[H])([H])[H])N1C(C(C(C([C@]1(c1c(c(c(c(c1[H])[H])[H])[H])[H])[H])([H])[H])([H])[H])([H])[H])([H])[H]

>  <h>  (35) 
<NA>

>  <Training>  (35) 
True

>  <Success>  (35) 
True

>  <enamine_searched>  (35) 
False

>  <enamine_id>  (35) 
nan

$$$$

     RDKit          3D

 56 60  0  0  0  0  0  0  0  0999 V2000
  -14.6096   -1.3262  -23.9958 C   0  0  0  0  0  0  0  0  0  0  0  0
  -13.7578   -2.4169  -23.5722 N   0  0  0  0  0  0  0  0  0  0  0  0
  -13.4598   -2.5587  -22.2555 C   0  0  0  0  0  0  0  0  0  0  0  0
  -13.8797   -1.8042  -21.3875 O   0  0  0  0  0  0  0  0  0  0  0  0
  -12.5899   -3.7661  -21.9011 C   0  0  0  0  0  0  0  0  0  0  0  0
  -11.2470   -3.7646  -22.4644 N   0  0  0  0  0  0  0  0  0  0  0  0
  -10.1380   -3.2537  -21.6642 C   0  0  0  0  0  0  0  0  0  0  0  0
   -8.9019   -2.8195  -22.4900 C   0  0  2  0  0  0  0  0  0  0  0  0
   -7.7461   -2.7005  -21.4916 C   0  0  0  0  0  0  0  0  0  0  0  0
   -7.1781   -3.6197  -20.9290 O   0  0  0  0  0  0  0  0  0  0  0  0
   -7.4368   -1.3734  -21.3032 N   0  0  0  0  0  0  0  0  0  0  0  0
   -6.5774   -0.9950  -20.2494 C   0  0  0  0  0  0  0  0  0  0  0  0
   -6.8490   -1.3801  -18.9613 C   0  0  0  0  0  0  0  0  0  0  0  0
   -6.1022   -1.0153  -17.8924 N   0  0  0  0  0  0  0  0  0  0  0  0
   -5.0622   -0.2455  -18.1047 C   0  0  0  0  0  0  0  0  0  0  0  0
   -4.6805    0.2362  -19.3906 C   0  0  0  0  0  0  0  0  0  0  0  0
   -3.5884    1.1235  -19.5784 C   0  0  0  0  0  0  0  0  0  0  0  0
   -3.2455    1.5439  -20.8348 C   0  0  0  0  0  0  0  0  0  0  0  0
   -3.9584    1.0791  -21.9633 C   0  0  0  0  0  0  0  0  0  0  0  0
   -5.0291    0.2331  -21.8061 C   0  0  0  0  0  0  0  0  0  0  0  0
   -5.4376   -0.1739  -20.5087 C   0  0  0  0  0  0  0  0  0  0  0  0
   -5.5740   -0.1360  -22.6684 H   0  0  0  0  0  0  0  0  0  0  0  0
   -3.6586    1.3996  -22.9566 H   0  0  0  0  0  0  0  0  0  0  0  0
   -2.4190    2.2350  -20.9788 H   0  0  0  0  0  0  0  0  0  0  0  0
   -3.0485    1.4667  -18.7001 H   0  0  0  0  0  0  0  0  0  0  0  0
   -4.4600    0.0270  -17.2363 H   0  0  0  0  0  0  0  0  0  0  0  0
   -7.7051   -2.0170  -18.7428 H   0  0  0  0  0  0  0  0  0  0  0  0
   -8.4011   -0.4776  -21.9283 C   0  0  0  0  0  0  0  0  0  0  0  0
   -9.0176   -1.3526  -23.0340 C   0  0  2  0  0  0  0  0  0  0  0  0
  -10.4134   -0.9100  -23.4641 C   0  0  0  0  0  0  0  0  0  0  0  0
  -10.8108   -1.5857  -24.2278 H   0  0  0  0  0  0  0  0  0  0  0  0
  -10.4008    0.1037  -23.8743 H   0  0  0  0  0  0  0  0  0  0  0  0
  -11.1146   -0.9068  -22.6220 H   0  0  0  0  0  0  0  0  0  0  0  0
   -8.3452   -1.3108  -23.9001 H   0  0  0  0  0  0  0  0  0  0  0  0
   -9.1571   -0.1487  -21.1968 H   0  0  0  0  0  0  0  0  0  0  0  0
   -7.9096    0.4196  -22.3177 H   0  0  0  0  0  0  0  0  0  0  0  0
   -8.6165   -3.8737  -23.5395 C   0  0  0  0  0  0  0  0  0  0  0  0
   -7.3195   -4.1176  -24.0081 C   0  0  0  0  0  0  0  0  0  0  0  0
   -7.0746   -5.1263  -24.9281 C   0  0  0  0  0  0  0  0  0  0  0  0
   -8.1203   -5.9271  -25.3910 C   0  0  0  0  0  0  0  0  0  0  0  0
   -9.4111   -5.6736  -24.9617 C   0  0  0  0  0  0  0  0  0  0  0  0
   -9.6594   -4.6383  -24.0672 C   0  0  0  0  0  0  0  0  0  0  0  0
  -11.0719   -4.3698  -23.6717 C   0  0  0  0  0  0  0  0  0  0  0  0
  -12.0291   -4.6601  -24.3932 O   0  0  0  0  0  0  0  0  0  0  0  0
  -10.2609   -6.2680  -25.2811 H   0  0  0  0  0  0  0  0  0  0  0  0
   -7.9226   -6.7571  -26.0634 H   0  0  0  0  0  0  0  0  0  0  0  0
   -6.0636   -5.2969  -25.2868 H   0  0  0  0  0  0  0  0  0  0  0  0
   -6.4912   -3.5450  -23.6007 H   0  0  0  0  0  0  0  0  0  0  0  0
  -10.4985   -2.3963  -21.0857 H   0  0  0  0  0  0  0  0  0  0  0  0
   -9.7947   -4.0056  -20.9463 H   0  0  0  0  0  0  0  0  0  0  0  0
  -12.5384   -3.8426  -20.8110 H   0  0  0  0  0  0  0  0  0  0  0  0
  -13.0991   -4.6482  -22.3021 H   0  0  0  0  0  0  0  0  0  0  0  0
  -13.3367   -3.0443  -24.2505 H   0  0  0  0  0  0  0  0  0  0  0  0
  -14.0515   -0.3831  -24.0766 H   0  0  0  0  0  0  0  0  0  0  0  0
  -15.3931   -1.1944  -23.2436 H   0  0  0  0  0  0  0  0  0  0  0  0
  -15.0433   -1.5874  -24.9648 H   0  0  0  0  0  0  0  0  0  0  0  0
  1  2  1  0
  2  3  1  0
  3  4  2  0
  3  5  1  0
  5  6  1  0
  6  7  1  0
  8  7  1  1
  8  9  1  0
  9 10  2  0
  9 11  1  0
 11 12  1  0
 12 13  2  0
 13 14  1  0
 14 15  2  0
 15 16  1  0
 16 17  2  0
 17 18  1  0
 18 19  2  0
 19 20  1  0
 20 21  2  0
 20 22  1  0
 19 23  1  0
 18 24  1  0
 17 25  1  0
 15 26  1  0
 13 27  1  0
 11 28  1  0
 28 29  1  0
 29 30  1  0
 30 31  1  0
 30 32  1  0
 30 33  1  0
 29 34  1  6
 28 35  1  0
 28 36  1  0
  8 37  1  0
 37 38  2  0
 38 39  1  0
 39 40  2  0
 40 41  1  0
 41 42  2  0
 42 43  1  0
 43 44  2  0
 41 45  1  0
 40 46  1  0
 39 47  1  0
 38 48  1  0
  7 49  1  0
  7 50  1  0
  5 51  1  0
  5 52  1  0
  2 53  1  0
  1 54  1  0
  1 55  1  0
  1 56  1  0
 43  6  1  0
 29  8  1  0
 42 37  1  0
 21 12  1  0
 21 16  1  0
M  END
>  <cnnaffinities>  (36) 
[6.51928]

>  <score>  (36) 
6.51928

>  <index>  (36) 
37

>  <Smiles>  (36) 
C(N(C(=O)C(N1C([C@@]2(C(=O)N(c3c(nc(c4c(c(c(c(c34)[H])[H])[H])[H])[H])[H])C([C@@]2(C([H])([H])[H])[H])([H])[H])c2c(c(c(c(c2C1=O)[H])[H])[H])[H])([H])[H])([H])[H])[H])([H])([H])[H]

>  <h>  (36) 
<NA>

>  <Training>  (36) 
True

>  <Success>  (36) 
True

>  <enamine_searched>  (36) 
False

>  <enamine_id>  (36) 
nan

$$$$

     RDKit          3D

 46 48  0  0  0  0  0  0  0  0999 V2000
   -8.1583   -4.6949  -26.5419 C   0  0  0  0  0  0  0  0  0  0  0  0
   -8.6536   -4.9596  -25.1182 C   0  0  1  0  0  0  0  0  0  0  0  0
   -7.5899   -5.5225  -24.1808 C   0  0  0  0  0  0  0  0  0  0  0  0
   -6.6168   -4.5173  -23.5535 C   0  0  1  0  0  0  0  0  0  0  0  0
   -5.4132   -4.1587  -24.4390 C   0  0  0  0  0  0  0  0  0  0  0  0
   -4.6074   -3.7376  -23.8288 H   0  0  0  0  0  0  0  0  0  0  0  0
   -5.6635   -3.4325  -25.2153 H   0  0  0  0  0  0  0  0  0  0  0  0
   -5.0172   -5.0538  -24.9371 H   0  0  0  0  0  0  0  0  0  0  0  0
   -7.3275   -3.3406  -23.0135 N   0  0  0  0  0  0  0  0  0  0  0  0
   -6.7245   -2.7062  -21.9385 C   0  0  0  0  0  0  0  0  0  0  0  0
   -5.6771   -3.1233  -21.4713 O   0  0  0  0  0  0  0  0  0  0  0  0
   -7.4091   -1.4729  -21.2887 C   0  0  0  0  0  0  0  0  0  0  0  0
   -6.5849   -0.8360  -20.1971 C   0  0  0  0  0  0  0  0  0  0  0  0
   -6.8955   -1.0569  -18.8830 C   0  0  0  0  0  0  0  0  0  0  0  0
   -6.1943   -0.6044  -17.8154 N   0  0  0  0  0  0  0  0  0  0  0  0
   -5.1283    0.1074  -18.0747 C   0  0  0  0  0  0  0  0  0  0  0  0
   -4.7152    0.4972  -19.3800 C   0  0  0  0  0  0  0  0  0  0  0  0
   -3.5988    1.3465  -19.6203 C   0  0  0  0  0  0  0  0  0  0  0  0
   -3.1996    1.6366  -20.8979 C   0  0  0  0  0  0  0  0  0  0  0  0
   -3.9079    1.0939  -21.9942 C   0  0  0  0  0  0  0  0  0  0  0  0
   -5.0030    0.2908  -21.7901 C   0  0  0  0  0  0  0  0  0  0  0  0
   -5.4507   -0.0178  -20.4804 C   0  0  0  0  0  0  0  0  0  0  0  0
   -5.5362   -0.1240  -22.6405 H   0  0  0  0  0  0  0  0  0  0  0  0
   -3.5777    1.3172  -23.0040 H   0  0  0  0  0  0  0  0  0  0  0  0
   -2.3307    2.2672  -21.0860 H   0  0  0  0  0  0  0  0  0  0  0  0
   -3.0634    1.7647  -18.7680 H   0  0  0  0  0  0  0  0  0  0  0  0
   -4.5365    0.3843  -17.2007 H   0  0  0  0  0  0  0  0  0  0  0  0
   -7.7414   -1.6754  -18.5968 H   0  0  0  0  0  0  0  0  0  0  0  0
   -7.6734   -0.7141  -22.0357 H   0  0  0  0  0  0  0  0  0  0  0  0
   -8.3590   -1.8078  -20.8491 H   0  0  0  0  0  0  0  0  0  0  0  0
   -8.4091   -2.7211  -23.7931 C   0  0  1  0  0  0  0  0  0  0  0  0
   -7.9392   -1.6606  -24.7998 C   0  0  0  0  0  0  0  0  0  0  0  0
   -7.4435   -2.0879  -25.6756 H   0  0  0  0  0  0  0  0  0  0  0  0
   -8.7980   -1.0852  -25.1702 H   0  0  0  0  0  0  0  0  0  0  0  0
   -7.2436   -0.9490  -24.3439 H   0  0  0  0  0  0  0  0  0  0  0  0
   -9.3272   -3.7775  -24.4235 C   0  0  0  0  0  0  0  0  0  0  0  0
   -9.9778   -4.1700  -23.6347 H   0  0  0  0  0  0  0  0  0  0  0  0
   -9.9923   -3.2778  -25.1332 H   0  0  0  0  0  0  0  0  0  0  0  0
   -9.0295   -2.1956  -23.0610 H   0  0  0  0  0  0  0  0  0  0  0  0
   -6.1952   -5.0141  -22.6781 H   0  0  0  0  0  0  0  0  0  0  0  0
   -8.0925   -6.0541  -23.3651 H   0  0  0  0  0  0  0  0  0  0  0  0
   -7.0117   -6.2844  -24.7122 H   0  0  0  0  0  0  0  0  0  0  0  0
   -9.4281   -5.7360  -25.2233 H   0  0  0  0  0  0  0  0  0  0  0  0
   -7.9236   -5.6399  -27.0476 H   0  0  0  0  0  0  0  0  0  0  0  0
   -8.9297   -4.1942  -27.1385 H   0  0  0  0  0  0  0  0  0  0  0  0
   -7.2556   -4.0805  -26.5813 H   0  0  0  0  0  0  0  0  0  0  0  0
  1  2  1  0
  2  3  1  0
  3  4  1  0
  4  5  1  0
  5  6  1  0
  5  7  1  0
  5  8  1  0
  4  9  1  0
  9 10  1  0
 10 11  2  0
 10 12  1  0
 12 13  1  0
 13 14  2  0
 14 15  1  0
 15 16  2  0
 16 17  1  0
 17 18  2  0
 18 19  1  0
 19 20  2  0
 20 21  1  0
 21 22  2  0
 21 23  1  0
 20 24  1  0
 19 25  1  0
 18 26  1  0
 16 27  1  0
 14 28  1  0
 12 29  1  0
 12 30  1  0
  9 31  1  0
 31 32  1  0
 32 33  1  0
 32 34  1  0
 32 35  1  0
 31 36  1  0
 36 37  1  0
 36 38  1  0
 31 39  1  1
  4 40  1  1
  3 41  1  0
  3 42  1  0
  2 43  1  6
  1 44  1  0
  1 45  1  0
  1 46  1  0
 36  2  1  0
 22 13  1  0
 22 17  1  0
M  END
>  <cnnaffinities>  (37) 
[5.33908, 5.4068]

>  <score>  (37) 
5.33908

>  <index>  (37) 
38

>  <Smiles>  (37) 
C([C@]1(C([C@@](C([H])([H])[H])(N(C(=O)C(c2c(nc(c3c(c(c(c(c23)[H])[H])[H])[H])[H])[H])([H])[H])[C@@](C([H])([H])[H])(C1([H])[H])[H])[H])([H])[H])[H])([H])([H])[H]

>  <h>  (37) 
<NA>

>  <Training>  (37) 
True

>  <Success>  (37) 
True

>  <enamine_searched>  (37) 
False

>  <enamine_id>  (37) 
nan

$$$$

     RDKit          3D

 40 44  0  0  0  0  0  0  0  0999 V2000
   -7.2353    0.9272  -25.5990 C   0  0  0  0  0  0  0  0  0  0  0  0
   -6.5109   -0.3950  -25.4029 C   0  0  0  0  0  0  0  0  0  0  0  0
   -5.2980   -0.5057  -25.5199 O   0  0  0  0  0  0  0  0  0  0  0  0
   -7.2735   -1.4779  -25.0913 N   0  0  0  0  0  0  0  0  0  0  0  0
   -6.6367   -2.7690  -24.7440 C   0  0  0  0  0  0  0  0  0  0  0  0
   -7.8117   -3.4928  -24.0541 C   0  0  2  0  0  0  0  0  0  0  0  0
   -9.0076   -2.9643  -24.8643 C   0  0  0  0  0  0  0  0  0  0  0  0
   -8.6624   -1.4910  -24.5641 C   0  0  1  0  0  0  0  0  0  0  0  0
   -8.5683   -1.5511  -23.0999 C   0  0  0  0  0  0  0  0  0  0  0  0
   -8.1713   -0.6114  -22.0949 C   0  0  0  0  0  0  0  0  0  0  0  0
   -8.3544    0.5772  -21.9814 O   0  0  0  0  0  1  0  0  0  0  0  0
   -7.4050   -1.3876  -21.2017 N   0  0  0  0  0  0  0  0  0  0  0  0
   -6.5981   -0.8321  -20.1837 C   0  0  0  0  0  0  0  0  0  0  0  0
   -6.9226   -1.0984  -18.8815 C   0  0  0  0  0  0  0  0  0  0  0  0
   -6.1710   -0.7032  -17.8312 N   0  0  0  0  0  0  0  0  0  0  0  0
   -5.1005    0.0128  -18.0859 C   0  0  0  0  0  0  0  0  0  0  0  0
   -4.7086    0.4464  -19.3924 C   0  0  0  0  0  0  0  0  0  0  0  0
   -3.6010    1.3144  -19.6214 C   0  0  0  0  0  0  0  0  0  0  0  0
   -3.2041    1.6179  -20.8954 C   0  0  0  0  0  0  0  0  0  0  0  0
   -3.8948    1.0751  -22.0030 C   0  0  0  0  0  0  0  0  0  0  0  0
   -4.9896    0.2700  -21.8124 C   0  0  0  0  0  0  0  0  0  0  0  0
   -5.4510   -0.0302  -20.4928 C   0  0  0  0  0  0  0  0  0  0  0  0
   -5.4878   -0.1504  -22.6841 H   0  0  0  0  0  0  0  0  0  0  0  0
   -3.5547    1.2948  -23.0123 H   0  0  0  0  0  0  0  0  0  0  0  0
   -2.3409    2.2575  -21.0700 H   0  0  0  0  0  0  0  0  0  0  0  0
   -3.0895    1.7372  -18.7617 H   0  0  0  0  0  0  0  0  0  0  0  0
   -4.4837    0.2701  -17.2230 H   0  0  0  0  0  0  0  0  0  0  0  0
   -7.8101   -1.6892  -18.6523 H   0  0  0  0  0  0  0  0  0  0  0  0
   -7.2598   -2.7094  -21.6430 C   0  0  0  0  0  0  0  0  0  0  0  0
   -6.5464   -3.5562  -21.1663 O   0  0  0  0  0  0  0  0  0  0  0  0
   -8.0693   -2.7843  -22.7721 N   0  0  0  0  0  0  0  0  0  0  0  0
   -9.2783   -0.6925  -24.9790 H   0  0  0  0  0  0  0  0  0  0  0  0
   -9.9691   -3.2761  -24.4589 H   0  0  0  0  0  0  0  0  0  0  0  0
   -8.9288   -3.1942  -25.9281 H   0  0  0  0  0  0  0  0  0  0  0  0
   -7.6979   -4.5614  -23.9049 H   0  0  0  0  0  0  0  0  0  0  0  0
   -5.7934   -2.6169  -24.0592 H   0  0  0  0  0  0  0  0  0  0  0  0
   -6.2906   -3.2731  -25.6506 H   0  0  0  0  0  0  0  0  0  0  0  0
   -6.4851    1.6598  -25.9026 H   0  0  0  0  0  0  0  0  0  0  0  0
   -7.7201    1.2455  -24.6688 H   0  0  0  0  0  0  0  0  0  0  0  0
   -8.0173    0.8525  -26.3645 H   0  0  0  0  0  0  0  0  0  0  0  0
  1  2  1  0
  2  3  2  0
  2  4  1  0
  4  5  1  0
  5  6  1  0
  6  7  1  0
  7  8  1  0
  8  9  1  0
  9 10  2  0
 10 11  1  0
 10 12  1  0
 12 13  1  0
 13 14  2  0
 14 15  1  0
 15 16  2  0
 16 17  1  0
 17 18  2  0
 18 19  1  0
 19 20  2  0
 20 21  1  0
 21 22  2  0
 21 23  1  0
 20 24  1  0
 19 25  1  0
 18 26  1  0
 16 27  1  0
 14 28  1  0
 12 29  1  0
 29 30  2  0
 29 31  1  0
  8 32  1  1
  7 33  1  0
  7 34  1  0
  6 35  1  1
  5 36  1  0
  5 37  1  0
  1 38  1  0
  1 39  1  0
  1 40  1  0
  8  4  1  0
 31  9  1  0
 31  6  1  0
 22 13  1  0
 22 17  1  0
M  CHG  1  11  -1
M  END
>  <cnnaffinities>  (38) 
[5.26832]

>  <score>  (38) 
5.26832

>  <index>  (38) 
39

>  <Smiles>  (38) 
C(C(=O)N1C([C@@]2(C([C@]1(c1c([O-])n(c3c(nc(c4c(c(c(c(c34)[H])[H])[H])[H])[H])[H])c(=O)n21)[H])([H])[H])[H])([H])[H])([H])([H])[H]

>  <h>  (38) 
<NA>

>  <Training>  (38) 
True

>  <Success>  (38) 
True

>  <enamine_searched>  (38) 
False

>  <enamine_id>  (38) 
nan

$$$$

     RDKit          3D

 40 42  0  0  0  0  0  0  0  0999 V2000
   -9.2806   -6.6098  -25.1496 C   0  0  0  0  0  0  0  0  0  0  0  0
   -8.9563   -5.7566  -23.9187 C   0  0  0  0  0  0  0  0  0  0  0  0
   -7.5231   -5.9610  -23.4275 C   0  0  0  0  0  0  0  0  0  0  0  0
   -7.2544   -5.1533  -22.1621 C   0  0  0  0  0  0  0  0  0  0  0  0
   -7.6185   -3.7548  -22.3233 N   0  0  0  0  0  0  0  0  0  0  0  0
   -6.7821   -2.8183  -21.7668 C   0  0  0  0  0  0  0  0  0  0  0  0
   -5.5897   -3.0363  -21.6319 O   0  0  0  0  0  0  0  0  0  0  0  0
   -7.4184   -1.4965  -21.2866 C   0  0  0  0  0  0  0  0  0  0  0  0
   -6.6052   -0.8367  -20.2071 C   0  0  0  0  0  0  0  0  0  0  0  0
   -6.9131   -1.0835  -18.8957 C   0  0  0  0  0  0  0  0  0  0  0  0
   -6.1711   -0.6926  -17.8322 N   0  0  0  0  0  0  0  0  0  0  0  0
   -5.0941    0.0157  -18.0779 C   0  0  0  0  0  0  0  0  0  0  0  0
   -4.7054    0.4454  -19.3820 C   0  0  0  0  0  0  0  0  0  0  0  0
   -3.6033    1.3154  -19.6114 C   0  0  0  0  0  0  0  0  0  0  0  0
   -3.2112    1.6236  -20.8882 C   0  0  0  0  0  0  0  0  0  0  0  0
   -3.9121    1.0865  -21.9909 C   0  0  0  0  0  0  0  0  0  0  0  0
   -5.0067    0.2797  -21.7949 C   0  0  0  0  0  0  0  0  0  0  0  0
   -5.4532   -0.0369  -20.4829 C   0  0  0  0  0  0  0  0  0  0  0  0
   -5.5271   -0.1500  -22.6443 H   0  0  0  0  0  0  0  0  0  0  0  0
   -3.5748    1.3137  -22.9991 H   0  0  0  0  0  0  0  0  0  0  0  0
   -2.3458    2.2585  -21.0644 H   0  0  0  0  0  0  0  0  0  0  0  0
   -3.0916    1.7385  -18.7503 H   0  0  0  0  0  0  0  0  0  0  0  0
   -4.4805    0.2647  -17.2081 H   0  0  0  0  0  0  0  0  0  0  0  0
   -7.7905   -1.6740  -18.6249 H   0  0  0  0  0  0  0  0  0  0  0  0
   -7.5655   -0.8189  -22.1371 H   0  0  0  0  0  0  0  0  0  0  0  0
   -8.4135   -1.7172  -20.8771 H   0  0  0  0  0  0  0  0  0  0  0  0
   -8.9620   -3.4959  -22.8075 C   0  0  0  0  0  0  0  0  0  0  0  0
   -9.2348   -4.2686  -24.1072 C   0  0  0  0  0  0  0  0  0  0  0  0
  -10.2992   -4.1577  -24.3452 H   0  0  0  0  0  0  0  0  0  0  0  0
   -8.6415   -3.8602  -24.9407 H   0  0  0  0  0  0  0  0  0  0  0  0
   -9.0594   -2.4217  -22.9846 H   0  0  0  0  0  0  0  0  0  0  0  0
   -9.7071   -3.7861  -22.0407 H   0  0  0  0  0  0  0  0  0  0  0  0
   -7.8273   -5.5863  -21.3228 H   0  0  0  0  0  0  0  0  0  0  0  0
   -6.1980   -5.1472  -21.8875 H   0  0  0  0  0  0  0  0  0  0  0  0
   -6.8141   -5.6787  -24.2223 H   0  0  0  0  0  0  0  0  0  0  0  0
   -7.3620   -7.0228  -23.2014 H   0  0  0  0  0  0  0  0  0  0  0  0
   -9.6421   -6.0233  -23.1134 H   0  0  0  0  0  0  0  0  0  0  0  0
   -9.1110   -7.6740  -24.9492 H   0  0  0  0  0  0  0  0  0  0  0  0
  -10.3320   -6.4996  -25.4343 H   0  0  0  0  0  0  0  0  0  0  0  0
   -8.6656   -6.3350  -26.0172 H   0  0  0  0  0  0  0  0  0  0  0  0
  1  2  1  0
  2  3  1  0
  3  4  1  0
  4  5  1  0
  5  6  1  0
  6  7  2  0
  6  8  1  0
  8  9  1  0
  9 10  2  0
 10 11  1  0
 11 12  2  0
 12 13  1  0
 13 14  2  0
 14 15  1  0
 15 16  2  0
 16 17  1  0
 17 18  2  0
 17 19  1  0
 16 20  1  0
 15 21  1  0
 14 22  1  0
 12 23  1  0
 10 24  1  0
  8 25  1  0
  8 26  1  0
  5 27  1  0
 27 28  1  0
 28 29  1  0
 28 30  1  0
 27 31  1  0
 27 32  1  0
  4 33  1  0
  4 34  1  0
  3 35  1  0
  3 36  1  0
  2 37  1  0
  1 38  1  0
  1 39  1  0
  1 40  1  0
 28  2  1  0
 18  9  1  0
 18 13  1  0
M  END
>  <cnnaffinities>  (39) 
[4.54496, 4.54476]

>  <score>  (39) 
4.54496

>  <index>  (39) 
40

>  <Smiles>  (39) 
C(C1(C(C(N(C(=O)C(c2c(nc(c3c(c(c(c(c23)[H])[H])[H])[H])[H])[H])([H])[H])C(C1([H])[H])([H])[H])([H])[H])([H])[H])[H])([H])([H])[H]

>  <h>  (39) 
<NA>

>  <Training>  (39) 
True

>  <Success>  (39) 
True

>  <enamine_searched>  (39) 
False

>  <enamine_id>  (39) 
nan

$$$$

     RDKit          3D

 67 71  0  0  0  0  0  0  0  0999 V2000
   -7.3558    3.3937  -21.8771 C   0  0  0  0  0  0  0  0  0  0  0  0
   -8.2948    2.8741  -22.8546 N   0  0  0  0  0  0  0  0  0  0  0  0
   -7.8096    2.1964  -23.9339 C   0  0  0  0  0  0  0  0  0  0  0  0
   -6.6113    2.0381  -24.1380 O   0  0  0  0  0  0  0  0  0  0  0  0
   -8.8734    1.6440  -24.8883 C   0  0  0  0  0  0  0  0  0  0  0  0
   -9.5447    0.4985  -24.2954 N   0  0  0  0  0  0  0  0  0  0  0  0
   -8.7775   -0.7216  -24.1327 C   0  0  0  0  0  0  0  0  0  0  0  0
   -9.1484   -1.4816  -22.8306 C   0  0  2  0  0  0  0  0  0  0  0  0
   -8.6123   -0.7153  -21.6033 C   0  0  0  0  0  0  0  0  0  0  0  0
   -9.1076    0.2505  -21.0572 O   0  0  0  0  0  0  0  0  0  0  0  0
   -7.4384   -1.3122  -21.2153 N   0  0  0  0  0  0  0  0  0  0  0  0
   -6.6379   -0.8129  -20.1722 C   0  0  0  0  0  0  0  0  0  0  0  0
   -6.9251   -1.1397  -18.8736 C   0  0  0  0  0  0  0  0  0  0  0  0
   -6.1349   -0.8167  -17.8250 N   0  0  0  0  0  0  0  0  0  0  0  0
   -5.0587   -0.1075  -18.0749 C   0  0  0  0  0  0  0  0  0  0  0  0
   -4.6831    0.3499  -19.3736 C   0  0  0  0  0  0  0  0  0  0  0  0
   -3.5743    1.2106  -19.5925 C   0  0  0  0  0  0  0  0  0  0  0  0
   -3.2429    1.6126  -20.8598 C   0  0  0  0  0  0  0  0  0  0  0  0
   -3.9970    1.1692  -21.9708 C   0  0  0  0  0  0  0  0  0  0  0  0
   -5.0905    0.3589  -21.7826 C   0  0  0  0  0  0  0  0  0  0  0  0
   -5.4742   -0.0451  -20.4720 C   0  0  0  0  0  0  0  0  0  0  0  0
   -5.6860    0.0455  -22.6352 H   0  0  0  0  0  0  0  0  0  0  0  0
   -3.7236    1.4806  -22.9752 H   0  0  0  0  0  0  0  0  0  0  0  0
   -2.4016    2.2813  -21.0191 H   0  0  0  0  0  0  0  0  0  0  0  0
   -3.0308    1.5645  -18.7212 H   0  0  0  0  0  0  0  0  0  0  0  0
   -4.4214    0.1404  -17.2254 H   0  0  0  0  0  0  0  0  0  0  0  0
   -7.8215   -1.7110  -18.6373 H   0  0  0  0  0  0  0  0  0  0  0  0
   -7.0636   -2.4874  -21.9601 C   0  0  0  0  0  0  0  0  0  0  0  0
   -8.3549   -2.8133  -22.7290 C   0  0  2  0  0  0  0  0  0  0  0  0
   -8.0955   -3.4982  -24.0632 C   0  0  0  0  0  0  0  0  0  0  0  0
   -7.2502   -5.0339  -23.7796 S   0  0  0  0  0  0  0  0  0  0  0  0
   -8.0926   -5.8418  -22.9095 O   0  0  0  0  0  0  0  0  0  0  0  0
   -5.8561   -4.7662  -23.4299 O   0  0  0  0  0  0  0  0  0  0  0  0
   -7.2919   -5.7002  -25.3142 N   0  0  0  0  0  0  0  0  0  0  0  0
   -6.4667   -5.0197  -26.3013 C   0  0  0  0  0  0  0  0  0  0  0  0
   -5.4237   -4.8971  -25.9894 H   0  0  0  0  0  0  0  0  0  0  0  0
   -6.5128   -5.6006  -27.2241 H   0  0  0  0  0  0  0  0  0  0  0  0
   -6.8962   -4.0421  -26.5200 H   0  0  0  0  0  0  0  0  0  0  0  0
   -7.0853   -7.1380  -25.2547 C   0  0  0  0  0  0  0  0  0  0  0  0
   -6.0676   -7.4172  -24.9379 H   0  0  0  0  0  0  0  0  0  0  0  0
   -7.8041   -7.5539  -24.5485 H   0  0  0  0  0  0  0  0  0  0  0  0
   -7.2869   -7.5635  -26.2427 H   0  0  0  0  0  0  0  0  0  0  0  0
   -7.4442   -2.8823  -24.6950 H   0  0  0  0  0  0  0  0  0  0  0  0
   -9.0348   -3.7194  -24.5832 H   0  0  0  0  0  0  0  0  0  0  0  0
   -8.9206   -3.5086  -22.1070 H   0  0  0  0  0  0  0  0  0  0  0  0
   -6.2151   -2.2813  -22.6262 H   0  0  0  0  0  0  0  0  0  0  0  0
   -6.7559   -3.2935  -21.2863 H   0  0  0  0  0  0  0  0  0  0  0  0
  -10.6564   -1.6077  -22.7561 C   0  0  0  0  0  0  0  0  0  0  0  0
  -11.2600   -2.5839  -21.9508 C   0  0  0  0  0  0  0  0  0  0  0  0
  -12.6342   -2.6189  -21.8371 C   0  0  0  0  0  0  0  0  0  0  0  0
  -13.1940   -3.5532  -21.0494 F   0  0  0  0  0  0  0  0  0  0  0  0
  -13.4577   -1.7134  -22.4956 C   0  0  0  0  0  0  0  0  0  0  0  0
  -12.8677   -0.7347  -23.2695 C   0  0  0  0  0  0  0  0  0  0  0  0
  -11.4792   -0.6607  -23.3848 C   0  0  0  0  0  0  0  0  0  0  0  0
  -10.9078    0.5004  -24.1549 C   0  0  0  0  0  0  0  0  0  0  0  0
  -11.6150    1.3926  -24.5949 O   0  0  0  0  0  0  0  0  0  0  0  0
  -13.4640    0.0077  -23.7885 H   0  0  0  0  0  0  0  0  0  0  0  0
  -14.5318   -1.7763  -22.3723 H   0  0  0  0  0  0  0  0  0  0  0  0
  -10.6850   -3.3103  -21.3865 H   0  0  0  0  0  0  0  0  0  0  0  0
   -7.7130   -0.4594  -24.1210 H   0  0  0  0  0  0  0  0  0  0  0  0
   -8.9627   -1.3655  -25.0032 H   0  0  0  0  0  0  0  0  0  0  0  0
   -9.6534    2.3812  -25.1050 H   0  0  0  0  0  0  0  0  0  0  0  0
   -8.3665    1.3828  -25.8269 H   0  0  0  0  0  0  0  0  0  0  0  0
   -9.2302    2.6675  -22.5181 H   0  0  0  0  0  0  0  0  0  0  0  0
   -7.8260    4.1978  -21.2995 H   0  0  0  0  0  0  0  0  0  0  0  0
   -6.4935    3.7870  -22.4203 H   0  0  0  0  0  0  0  0  0  0  0  0
   -6.9872    2.6036  -21.2045 H   0  0  0  0  0  0  0  0  0  0  0  0
  1  2  1  0
  2  3  1  0
  3  4  2  0
  3  5  1  0
  5  6  1  0
  6  7  1  0
  8  7  1  6
  8  9  1  0
  9 10  2  0
  9 11  1  0
 11 12  1  0
 12 13  2  0
 13 14  1  0
 14 15  2  0
 15 16  1  0
 16 17  2  0
 17 18  1  0
 18 19  2  0
 19 20  1  0
 20 21  2  0
 20 22  1  0
 19 23  1  0
 18 24  1  0
 17 25  1  0
 15 26  1  0
 13 27  1  0
 11 28  1  0
 28 29  1  0
 29 30  1  0
 30 31  1  0
 31 32  2  0
 31 33  2  0
 31 34  1  0
 34 35  1  0
 35 36  1  0
 35 37  1  0
 35 38  1  0
 34 39  1  0
 39 40  1  0
 39 41  1  0
 39 42  1  0
 30 43  1  0
 30 44  1  0
 29 45  1  1
 28 46  1  0
 28 47  1  0
  8 48  1  0
 48 49  2  0
 49 50  1  0
 50 51  1  0
 50 52  2  0
 52 53  1  0
 53 54  2  0
 54 55  1  0
 55 56  2  0
 53 57  1  0
 52 58  1  0
 49 59  1  0
  7 60  1  0
  7 61  1  0
  5 62  1  0
  5 63  1  0
  2 64  1  0
  1 65  1  0
  1 66  1  0
  1 67  1  0
 55  6  1  0
 29  8  1  0
 54 48  1  0
 21 12  1  0
 21 16  1  0
M  END
>  <cnnaffinities>  (40) 
[6.33614, 6.60345, 6.93718, 6.94931]

>  <score>  (40) 
6.33614

>  <index>  (40) 
41

>  <Smiles>  (40) 
C(N(C(=O)C(N1C([C@@]2(C(=O)N(c3c(nc(c4c(c(c(c(c34)[H])[H])[H])[H])[H])[H])C([C@@]2(C(S(=O)(=O)N(C([H])([H])[H])C([H])([H])[H])([H])[H])[H])([H])[H])c2c(c(F)c(c(c2C1=O)[H])[H])[H])([H])[H])([H])[H])[H])([H])([H])[H]

>  <h>  (40) 
<NA>

>  <Training>  (40) 
True

>  <Success>  (40) 
True

>  <enamine_searched>  (40) 
False

>  <enamine_id>  (40) 
nan

$$$$

     RDKit          3D

 67 72  0  0  0  0  0  0  0  0999 V2000
  -14.5152   -0.3800  -22.8475 C   0  0  0  0  0  0  0  0  0  0  0  0
  -13.7202   -1.3915  -22.1600 N   0  0  0  0  0  0  0  0  0  0  0  0
  -13.4251   -2.5479  -22.8263 C   0  0  0  0  0  0  0  0  0  0  0  0
  -13.7461   -2.7034  -23.9948 O   0  0  0  0  0  0  0  0  0  0  0  0
  -12.6630   -3.6509  -22.0748 C   0  0  0  0  0  0  0  0  0  0  0  0
  -11.2726   -3.7498  -22.5265 N   0  0  0  0  0  0  0  0  0  0  0  0
  -10.1772   -3.2369  -21.7051 C   0  0  0  0  0  0  0  0  0  0  0  0
   -8.9276   -2.7847  -22.5048 C   0  0  2  0  0  0  0  0  0  0  0  0
   -7.7903   -2.6530  -21.4767 C   0  0  0  0  0  0  0  0  0  0  0  0
   -7.2271   -3.5645  -20.9019 O   0  0  0  0  0  0  0  0  0  0  0  0
   -7.4848   -1.3231  -21.2873 N   0  0  0  0  0  0  0  0  0  0  0  0
   -6.6072   -0.9438  -20.2384 C   0  0  0  0  0  0  0  0  0  0  0  0
   -6.8586   -1.3319  -18.9455 C   0  0  0  0  0  0  0  0  0  0  0  0
   -6.1111   -0.9566  -17.8777 N   0  0  0  0  0  0  0  0  0  0  0  0
   -5.0742   -0.1840  -18.0983 C   0  0  0  0  0  0  0  0  0  0  0  0
   -4.6870    0.2777  -19.3888 C   0  0  0  0  0  0  0  0  0  0  0  0
   -3.5783    1.1460  -19.5810 C   0  0  0  0  0  0  0  0  0  0  0  0
   -3.2273    1.5568  -20.8388 C   0  0  0  0  0  0  0  0  0  0  0  0
   -3.9474    1.0918  -21.9619 C   0  0  0  0  0  0  0  0  0  0  0  0
   -5.0284    0.2595  -21.7998 C   0  0  0  0  0  0  0  0  0  0  0  0
   -5.4530   -0.1350  -20.5031 C   0  0  0  0  0  0  0  0  0  0  0  0
   -5.5662   -0.1125  -22.6642 H   0  0  0  0  0  0  0  0  0  0  0  0
   -3.6405    1.4022  -22.9571 H   0  0  0  0  0  0  0  0  0  0  0  0
   -2.3898    2.2342  -20.9879 H   0  0  0  0  0  0  0  0  0  0  0  0
   -3.0260    1.4817  -18.7067 H   0  0  0  0  0  0  0  0  0  0  0  0
   -4.4754    0.1092  -17.2341 H   0  0  0  0  0  0  0  0  0  0  0  0
   -7.7009   -1.9833  -18.7165 H   0  0  0  0  0  0  0  0  0  0  0  0
   -8.4146   -0.4256  -21.9653 C   0  0  0  0  0  0  0  0  0  0  0  0
   -9.0398   -1.3215  -23.0546 C   0  0  2  0  0  0  0  0  0  0  0  0
  -10.4575   -0.8883  -23.4681 C   0  0  0  0  0  0  0  0  0  0  0  0
  -10.4808    0.3199  -24.2493 N   0  0  0  0  0  0  0  0  0  0  0  0
  -10.8958    1.5365  -23.7721 C   0  0  0  0  0  0  0  0  0  0  0  0
  -11.6364    1.7441  -22.2013 S   0  0  0  0  0  0  0  0  0  0  0  0
  -11.6970    3.4496  -22.5326 C   0  0  0  0  0  0  0  0  0  0  0  0
  -11.2365    3.8228  -23.6782 N   0  0  0  0  0  0  0  0  0  0  0  0
  -10.7736    2.7402  -24.3989 C   0  0  0  0  0  0  0  0  0  0  0  0
  -10.1851    2.8720  -25.7731 C   0  0  0  0  0  0  0  0  0  0  0  0
  -10.7681    2.2938  -26.5041 H   0  0  0  0  0  0  0  0  0  0  0  0
   -9.1530    2.4921  -25.8051 H   0  0  0  0  0  0  0  0  0  0  0  0
  -10.1748    3.9156  -26.0948 H   0  0  0  0  0  0  0  0  0  0  0  0
  -12.1103    4.1295  -21.8007 H   0  0  0  0  0  0  0  0  0  0  0  0
  -10.0451    0.2945  -25.1599 H   0  0  0  0  0  0  0  0  0  0  0  0
  -11.0597   -0.6894  -22.5774 H   0  0  0  0  0  0  0  0  0  0  0  0
  -10.9329   -1.7082  -24.0211 H   0  0  0  0  0  0  0  0  0  0  0  0
   -8.3898   -1.2858  -23.9378 H   0  0  0  0  0  0  0  0  0  0  0  0
   -9.1672   -0.0450  -21.2562 H   0  0  0  0  0  0  0  0  0  0  0  0
   -7.8893    0.4387  -22.3835 H   0  0  0  0  0  0  0  0  0  0  0  0
   -8.6081   -3.8531  -23.5383 C   0  0  0  0  0  0  0  0  0  0  0  0
   -7.3001   -4.0372  -24.0111 C   0  0  0  0  0  0  0  0  0  0  0  0
   -7.0205   -5.0399  -24.9242 C   0  0  0  0  0  0  0  0  0  0  0  0
   -5.4024   -5.2413  -25.5254 Cl  0  0  0  0  0  0  0  0  0  0  0  0
   -8.0110   -5.9063  -25.3778 C   0  0  0  0  0  0  0  0  0  0  0  0
   -9.3011   -5.7265  -24.9210 C   0  0  0  0  0  0  0  0  0  0  0  0
   -9.6028   -4.7178  -24.0099 C   0  0  0  0  0  0  0  0  0  0  0  0
  -11.0284   -4.6090  -23.5663 C   0  0  0  0  0  0  0  0  0  0  0  0
  -11.9253   -5.2357  -24.1136 O   0  0  0  0  0  0  0  0  0  0  0  0
  -10.1157   -6.3688  -25.2375 H   0  0  0  0  0  0  0  0  0  0  0  0
   -7.7573   -6.7291  -26.0362 H   0  0  0  0  0  0  0  0  0  0  0  0
   -6.4854   -3.4408  -23.6170 H   0  0  0  0  0  0  0  0  0  0  0  0
  -10.5378   -2.3924  -21.1108 H   0  0  0  0  0  0  0  0  0  0  0  0
   -9.8313   -3.9939  -20.9937 H   0  0  0  0  0  0  0  0  0  0  0  0
  -12.6767   -3.5559  -20.9809 H   0  0  0  0  0  0  0  0  0  0  0  0
  -13.1647   -4.5774  -22.3822 H   0  0  0  0  0  0  0  0  0  0  0  0
  -13.5109   -1.2684  -21.1788 H   0  0  0  0  0  0  0  0  0  0  0  0
  -15.5609   -0.6876  -22.9473 H   0  0  0  0  0  0  0  0  0  0  0  0
  -14.4692    0.5570  -22.2961 H   0  0  0  0  0  0  0  0  0  0  0  0
  -14.1154   -0.2195  -23.8531 H   0  0  0  0  0  0  0  0  0  0  0  0
  1  2  1  0
  2  3  1  0
  3  4  2  0
  3  5  1  0
  5  6  1  0
  6  7  1  0
  8  7  1  1
  8  9  1  0
  9 10  2  0
  9 11  1  0
 11 12  1  0
 12 13  2  0
 13 14  1  0
 14 15  2  0
 15 16  1  0
 16 17  2  0
 17 18  1  0
 18 19  2  0
 19 20  1  0
 20 21  2  0
 20 22  1  0
 19 23  1  0
 18 24  1  0
 17 25  1  0
 15 26  1  0
 13 27  1  0
 11 28  1  0
 28 29  1  0
 29 30  1  0
 30 31  1  0
 31 32  1  0
 32 33  1  0
 33 34  1  0
 34 35  2  0
 35 36  1  0
 36 37  1  0
 37 38  1  0
 37 39  1  0
 37 40  1  0
 34 41  1  0
 31 42  1  0
 30 43  1  0
 30 44  1  0
 29 45  1  6
 28 46  1  0
 28 47  1  0
  8 48  1  0
 48 49  2  0
 49 50  1  0
 50 51  1  0
 50 52  2  0
 52 53  1  0
 53 54  2  0
 54 55  1  0
 55 56  2  0
 53 57  1  0
 52 58  1  0
 49 59  1  0
  7 60  1  0
  7 61  1  0
  5 62  1  0
  5 63  1  0
  2 64  1  0
  1 65  1  0
  1 66  1  0
  1 67  1  0
 55  6  1  0
 29  8  1  0
 36 32  2  0
 54 48  1  0
 21 12  1  0
 21 16  1  0
M  END
>  <cnnaffinities>  (41) 
[7.07395, 6.76006]

>  <score>  (41) 
7.07395

>  <index>  (41) 
43

>  <Smiles>  (41) 
C(N(C(=O)C(N1C([C@@]2(C(=O)N(c3c(nc(c4c(c(c(c(c34)[H])[H])[H])[H])[H])[H])C([C@@]2(C(N(c2sc(nc2C([H])([H])[H])[H])[H])([H])[H])[H])([H])[H])c2c(c(Cl)c(c(c2C1=O)[H])[H])[H])([H])[H])([H])[H])[H])([H])([H])[H]

>  <h>  (41) 
<NA>

>  <Training>  (41) 
True

>  <Success>  (41) 
True

>  <enamine_searched>  (41) 
False

>  <enamine_id>  (41) 
nan

$$$$

     RDKit          3D

 60 64  0  0  0  0  0  0  0  0999 V2000
   -7.4333    3.3864  -21.7797 C   0  0  0  0  0  0  0  0  0  0  0  0
   -8.2678    2.8967  -22.8518 N   0  0  0  0  0  0  0  0  0  0  0  0
   -7.7064    2.2183  -23.8770 C   0  0  0  0  0  0  0  0  0  0  0  0
   -6.4925    2.1109  -24.0053 O   0  0  0  0  0  0  0  0  0  0  0  0
   -8.6649    1.6048  -24.8965 C   0  0  0  0  0  0  0  0  0  0  0  0
   -9.3898    0.4574  -24.3898 N   0  0  0  0  0  0  0  0  0  0  0  0
   -8.6743   -0.7956  -24.2227 C   0  0  0  0  0  0  0  0  0  0  0  0
   -9.0640   -1.5131  -22.9097 C   0  0  2  0  0  0  0  0  0  0  0  0
   -8.5193   -0.7278  -21.6958 C   0  0  0  0  0  0  0  0  0  0  0  0
   -8.9651    0.2943  -21.2056 O   0  0  0  0  0  0  0  0  0  0  0  0
   -7.4074   -1.3755  -21.2251 N   0  0  0  0  0  0  0  0  0  0  0  0
   -6.6214   -0.8155  -20.1912 C   0  0  0  0  0  0  0  0  0  0  0  0
   -6.9375   -1.0814  -18.8851 C   0  0  0  0  0  0  0  0  0  0  0  0
   -6.1791   -0.6960  -17.8320 N   0  0  0  0  0  0  0  0  0  0  0  0
   -5.1100    0.0225  -18.0845 C   0  0  0  0  0  0  0  0  0  0  0  0
   -4.7163    0.4531  -19.3898 C   0  0  0  0  0  0  0  0  0  0  0  0
   -3.6115    1.3229  -19.6276 C   0  0  0  0  0  0  0  0  0  0  0  0
   -3.2369    1.6447  -20.9050 C   0  0  0  0  0  0  0  0  0  0  0  0
   -3.9544    1.1299  -22.0086 C   0  0  0  0  0  0  0  0  0  0  0  0
   -5.0487    0.3235  -21.8042 C   0  0  0  0  0  0  0  0  0  0  0  0
   -5.4732   -0.0166  -20.4901 C   0  0  0  0  0  0  0  0  0  0  0  0
   -5.5992   -0.0557  -22.6594 H   0  0  0  0  0  0  0  0  0  0  0  0
   -3.6467    1.3773  -23.0193 H   0  0  0  0  0  0  0  0  0  0  0  0
   -2.3803    2.2914  -21.0812 H   0  0  0  0  0  0  0  0  0  0  0  0
   -3.0877    1.7409  -18.7706 H   0  0  0  0  0  0  0  0  0  0  0  0
   -4.4945    0.3014  -17.2260 H   0  0  0  0  0  0  0  0  0  0  0  0
   -7.8277   -1.6627  -18.6511 H   0  0  0  0  0  0  0  0  0  0  0  0
   -7.0749   -2.5953  -21.9270 C   0  0  0  0  0  0  0  0  0  0  0  0
   -8.3333   -2.8863  -22.7613 C   0  0  2  0  0  0  0  0  0  0  0  0
   -7.9815   -3.6523  -24.0317 C   0  0  0  0  0  0  0  0  0  0  0  0
   -9.1462   -3.9340  -24.7623 O   0  0  0  0  0  0  0  0  0  0  0  0
   -8.8681   -4.5823  -25.9786 C   0  0  0  0  0  0  0  0  0  0  0  0
   -8.2724   -3.9470  -26.6524 H   0  0  0  0  0  0  0  0  0  0  0  0
   -8.3182   -5.5214  -25.8181 H   0  0  0  0  0  0  0  0  0  0  0  0
   -9.8250   -4.8055  -26.4547 H   0  0  0  0  0  0  0  0  0  0  0  0
   -7.2785   -3.0624  -24.6420 H   0  0  0  0  0  0  0  0  0  0  0  0
   -7.4679   -4.5930  -23.7745 H   0  0  0  0  0  0  0  0  0  0  0  0
   -9.0056   -3.5197  -22.1839 H   0  0  0  0  0  0  0  0  0  0  0  0
   -6.1934   -2.4460  -22.5704 H   0  0  0  0  0  0  0  0  0  0  0  0
   -6.8334   -3.4001  -21.2214 H   0  0  0  0  0  0  0  0  0  0  0  0
  -10.5795   -1.5577  -22.8384 C   0  0  0  0  0  0  0  0  0  0  0  0
  -11.2141   -2.4391  -21.9558 C   0  0  0  0  0  0  0  0  0  0  0  0
  -12.5926   -2.4503  -21.8616 C   0  0  0  0  0  0  0  0  0  0  0  0
  -13.3704   -3.5354  -20.7466 Cl  0  0  0  0  0  0  0  0  0  0  0  0
  -13.3815   -1.5862  -22.6222 C   0  0  0  0  0  0  0  0  0  0  0  0
  -12.7629   -0.6656  -23.4452 C   0  0  0  0  0  0  0  0  0  0  0  0
  -11.3721   -0.6274  -23.5289 C   0  0  0  0  0  0  0  0  0  0  0  0
  -10.7557    0.4994  -24.2998 C   0  0  0  0  0  0  0  0  0  0  0  0
  -11.4349    1.4012  -24.7800 O   0  0  0  0  0  0  0  0  0  0  0  0
  -13.3214    0.0674  -24.0220 H   0  0  0  0  0  0  0  0  0  0  0  0
  -14.4594   -1.6270  -22.5327 H   0  0  0  0  0  0  0  0  0  0  0  0
  -10.6368   -3.0965  -21.3159 H   0  0  0  0  0  0  0  0  0  0  0  0
   -8.8891   -1.4743  -25.0596 H   0  0  0  0  0  0  0  0  0  0  0  0
   -7.6062   -0.5564  -24.2089 H   0  0  0  0  0  0  0  0  0  0  0  0
   -9.4377    2.3128  -25.2033 H   0  0  0  0  0  0  0  0  0  0  0  0
   -8.0417    1.3270  -25.7549 H   0  0  0  0  0  0  0  0  0  0  0  0
   -9.2570    2.8065  -22.6938 H   0  0  0  0  0  0  0  0  0  0  0  0
   -6.6892    4.0892  -22.1592 H   0  0  0  0  0  0  0  0  0  0  0  0
   -6.9047    2.5611  -21.2851 H   0  0  0  0  0  0  0  0  0  0  0  0
   -8.0682    3.9143  -21.0729 H   0  0  0  0  0  0  0  0  0  0  0  0
  1  2  1  0
  2  3  1  0
  3  4  2  0
  3  5  1  0
  5  6  1  0
  6  7  1  0
  8  7  1  6
  8  9  1  0
  9 10  2  0
  9 11  1  0
 11 12  1  0
 12 13  2  0
 13 14  1  0
 14 15  2  0
 15 16  1  0
 16 17  2  0
 17 18  1  0
 18 19  2  0
 19 20  1  0
 20 21  2  0
 20 22  1  0
 19 23  1  0
 18 24  1  0
 17 25  1  0
 15 26  1  0
 13 27  1  0
 11 28  1  0
 28 29  1  0
 29 30  1  0
 30 31  1  0
 31 32  1  0
 32 33  1  0
 32 34  1  0
 32 35  1  0
 30 36  1  0
 30 37  1  0
 29 38  1  1
 28 39  1  0
 28 40  1  0
  8 41  1  0
 41 42  2  0
 42 43  1  0
 43 44  1  0
 43 45  2  0
 45 46  1  0
 46 47  2  0
 47 48  1  0
 48 49  2  0
 46 50  1  0
 45 51  1  0
 42 52  1  0
  7 53  1  0
  7 54  1  0
  5 55  1  0
  5 56  1  0
  2 57  1  0
  1 58  1  0
  1 59  1  0
  1 60  1  0
 48  6  1  0
 29  8  1  0
 47 41  1  0
 21 12  1  0
 21 16  1  0
M  END
>  <cnnaffinities>  (42) 
[6.37899, 6.2973, 6.2298]

>  <score>  (42) 
6.37899

>  <index>  (42) 
44

>  <Smiles>  (42) 
C(N(C(=O)C(N1C([C@@]2(C(=O)N(c3c(nc(c4c(c(c(c(c34)[H])[H])[H])[H])[H])[H])C([C@@]2(C(OC([H])([H])[H])([H])[H])[H])([H])[H])c2c(c(Cl)c(c(c2C1=O)[H])[H])[H])([H])[H])([H])[H])[H])([H])([H])[H]

>  <h>  (42) 
<NA>

>  <Training>  (42) 
True

>  <Success>  (42) 
True

>  <enamine_searched>  (42) 
False

>  <enamine_id>  (42) 
nan

$$$$

     RDKit          3D

 66 71  0  0  0  0  0  0  0  0999 V2000
   -7.4270    3.3664  -21.8184 C   0  0  0  0  0  0  0  0  0  0  0  0
   -8.2981    2.8835  -22.8760 N   0  0  0  0  0  0  0  0  0  0  0  0
   -7.7372    2.1846  -23.9015 C   0  0  0  0  0  0  0  0  0  0  0  0
   -6.5281    2.0485  -24.0263 O   0  0  0  0  0  0  0  0  0  0  0  0
   -8.7222    1.5835  -24.9043 C   0  0  0  0  0  0  0  0  0  0  0  0
   -9.4156    0.4425  -24.3494 N   0  0  0  0  0  0  0  0  0  0  0  0
   -8.6795   -0.7944  -24.1809 C   0  0  0  0  0  0  0  0  0  0  0  0
   -9.0739   -1.5225  -22.8785 C   0  0  2  0  0  0  0  0  0  0  0  0
   -8.5457   -0.7412  -21.6549 C   0  0  0  0  0  0  0  0  0  0  0  0
   -9.0208    0.2515  -21.1466 O   0  0  0  0  0  0  0  0  0  0  0  0
   -7.4044   -1.3677  -21.2279 N   0  0  0  0  0  0  0  0  0  0  0  0
   -6.6086   -0.8375  -20.1962 C   0  0  0  0  0  0  0  0  0  0  0  0
   -6.9253   -1.1171  -18.8957 C   0  0  0  0  0  0  0  0  0  0  0  0
   -6.1573   -0.7711  -17.8396 N   0  0  0  0  0  0  0  0  0  0  0  0
   -5.0914   -0.0465  -18.0921 C   0  0  0  0  0  0  0  0  0  0  0  0
   -4.7123    0.4019  -19.3908 C   0  0  0  0  0  0  0  0  0  0  0  0
   -3.6173    1.2778  -19.6116 C   0  0  0  0  0  0  0  0  0  0  0  0
   -3.2547    1.6251  -20.8837 C   0  0  0  0  0  0  0  0  0  0  0  0
   -3.9732    1.1351  -21.9972 C   0  0  0  0  0  0  0  0  0  0  0  0
   -5.0657    0.3250  -21.8097 C   0  0  0  0  0  0  0  0  0  0  0  0
   -5.4671   -0.0428  -20.4964 C   0  0  0  0  0  0  0  0  0  0  0  0
   -5.6312   -0.0244  -22.6687 H   0  0  0  0  0  0  0  0  0  0  0  0
   -3.6665    1.3990  -23.0032 H   0  0  0  0  0  0  0  0  0  0  0  0
   -2.4031    2.2775  -21.0506 H   0  0  0  0  0  0  0  0  0  0  0  0
   -3.0929    1.6796  -18.7500 H   0  0  0  0  0  0  0  0  0  0  0  0
   -4.4598    0.2270  -17.2495 H   0  0  0  0  0  0  0  0  0  0  0  0
   -7.8514   -1.6452  -18.6824 H   0  0  0  0  0  0  0  0  0  0  0  0
   -7.0583   -2.5679  -21.9480 C   0  0  0  0  0  0  0  0  0  0  0  0
   -8.3292   -2.8868  -22.7420 C   0  0  2  0  0  0  0  0  0  0  0  0
   -8.0310   -3.6806  -24.0281 C   0  0  0  0  0  0  0  0  0  0  0  0
   -7.4755   -5.0664  -23.7696 C   0  0  0  0  0  0  0  0  0  0  0  0
   -8.3411   -6.1353  -23.5286 C   0  0  0  0  0  0  0  0  0  0  0  0
   -7.8504   -7.4110  -23.2691 C   0  0  0  0  0  0  0  0  0  0  0  0
   -6.4807   -7.6361  -23.2204 C   0  0  0  0  0  0  0  0  0  0  0  0
   -5.6054   -6.5846  -23.4659 C   0  0  0  0  0  0  0  0  0  0  0  0
   -6.0992   -5.3128  -23.7436 C   0  0  0  0  0  0  0  0  0  0  0  0
   -5.4004   -4.5032  -23.9498 H   0  0  0  0  0  0  0  0  0  0  0  0
   -4.5339   -6.7620  -23.4534 H   0  0  0  0  0  0  0  0  0  0  0  0
   -6.0974   -8.6259  -22.9892 H   0  0  0  0  0  0  0  0  0  0  0  0
   -8.5412   -8.2349  -23.1150 H   0  0  0  0  0  0  0  0  0  0  0  0
   -9.4167   -5.9665  -23.5519 H   0  0  0  0  0  0  0  0  0  0  0  0
   -8.9518   -3.7604  -24.6191 H   0  0  0  0  0  0  0  0  0  0  0  0
   -7.3181   -3.1115  -24.6365 H   0  0  0  0  0  0  0  0  0  0  0  0
   -8.9601   -3.5207  -22.1171 H   0  0  0  0  0  0  0  0  0  0  0  0
   -6.7961   -3.3695  -21.2514 H   0  0  0  0  0  0  0  0  0  0  0  0
   -6.1939   -2.4133  -22.6132 H   0  0  0  0  0  0  0  0  0  0  0  0
  -10.5824   -1.5879  -22.8165 C   0  0  0  0  0  0  0  0  0  0  0  0
  -11.2152   -2.4948  -21.9630 C   0  0  0  0  0  0  0  0  0  0  0  0
  -12.5945   -2.4969  -21.8662 C   0  0  0  0  0  0  0  0  0  0  0  0
  -13.3542   -3.5830  -20.7418 Cl  0  0  0  0  0  0  0  0  0  0  0  0
  -13.3942   -1.6312  -22.6120 C   0  0  0  0  0  0  0  0  0  0  0  0
  -12.7707   -0.7053  -23.4207 C   0  0  0  0  0  0  0  0  0  0  0  0
  -11.3809   -0.6577  -23.4932 C   0  0  0  0  0  0  0  0  0  0  0  0
  -10.7776    0.4745  -24.2602 C   0  0  0  0  0  0  0  0  0  0  0  0
  -11.4522    1.3736  -24.7375 O   0  0  0  0  0  0  0  0  0  0  0  0
  -13.3328    0.0219  -23.9932 H   0  0  0  0  0  0  0  0  0  0  0  0
  -14.4748   -1.6802  -22.5212 H   0  0  0  0  0  0  0  0  0  0  0  0
  -10.6400   -3.1880  -21.3574 H   0  0  0  0  0  0  0  0  0  0  0  0
   -8.8869   -1.4605  -25.0269 H   0  0  0  0  0  0  0  0  0  0  0  0
   -7.6104   -0.5617  -24.1848 H   0  0  0  0  0  0  0  0  0  0  0  0
   -9.4883    2.3102  -25.1926 H   0  0  0  0  0  0  0  0  0  0  0  0
   -8.1436    1.2893  -25.7838 H   0  0  0  0  0  0  0  0  0  0  0  0
   -9.2651    2.7049  -22.6303 H   0  0  0  0  0  0  0  0  0  0  0  0
   -6.6510    3.9995  -22.2512 H   0  0  0  0  0  0  0  0  0  0  0  0
   -7.9892    3.9861  -21.1175 H   0  0  0  0  0  0  0  0  0  0  0  0
   -6.9308    2.5388  -21.2836 H   0  0  0  0  0  0  0  0  0  0  0  0
  1  2  1  0
  2  3  1  0
  3  4  2  0
  3  5  1  0
  5  6  1  0
  6  7  1  0
  8  7  1  6
  8  9  1  0
  9 10  2  0
  9 11  1  0
 11 12  1  0
 12 13  2  0
 13 14  1  0
 14 15  2  0
 15 16  1  0
 16 17  2  0
 17 18  1  0
 18 19  2  0
 19 20  1  0
 20 21  2  0
 20 22  1  0
 19 23  1  0
 18 24  1  0
 17 25  1  0
 15 26  1  0
 13 27  1  0
 11 28  1  0
 28 29  1  0
 29 30  1  0
 30 31  1  0
 31 32  2  0
 32 33  1  0
 33 34  2  0
 34 35  1  0
 35 36  2  0
 36 37  1  0
 35 38  1  0
 34 39  1  0
 33 40  1  0
 32 41  1  0
 30 42  1  0
 30 43  1  0
 29 44  1  1
 28 45  1  0
 28 46  1  0
  8 47  1  0
 47 48  2  0
 48 49  1  0
 49 50  1  0
 49 51  2  0
 51 52  1  0
 52 53  2  0
 53 54  1  0
 54 55  2  0
 52 56  1  0
 51 57  1  0
 48 58  1  0
  7 59  1  0
  7 60  1  0
  5 61  1  0
  5 62  1  0
  2 63  1  0
  1 64  1  0
  1 65  1  0
  1 66  1  0
 54  6  1  0
 29  8  1  0
 36 31  1  0
 53 47  1  0
 21 12  1  0
 21 16  1  0
M  END
>  <cnnaffinities>  (43) 
[6.32474, 6.34907]

>  <score>  (43) 
6.32474

>  <index>  (43) 
45

>  <Smiles>  (43) 
C(N(C(=O)C(N1C([C@@]2(C(=O)N(c3c(nc(c4c(c(c(c(c34)[H])[H])[H])[H])[H])[H])C([C@@]2(C(c2c(c(c(c(c2[H])[H])[H])[H])[H])([H])[H])[H])([H])[H])c2c(c(Cl)c(c(c2C1=O)[H])[H])[H])([H])[H])([H])[H])[H])([H])([H])[H]

>  <h>  (43) 
<NA>

>  <Training>  (43) 
True

>  <Success>  (43) 
True

>  <enamine_searched>  (43) 
False

>  <enamine_id>  (43) 
nan

$$$$

     RDKit          3D

 50 54  0  0  0  0  0  0  0  0999 V2000
  -10.3888   -0.9390  -23.4478 C   0  0  0  0  0  0  0  0  0  0  0  0
   -8.9885   -1.3857  -23.0307 C   0  0  1  0  0  0  0  0  0  0  0  0
   -8.3747   -0.4967  -21.9357 C   0  0  0  0  0  0  0  0  0  0  0  0
   -7.4189   -1.3827  -21.2874 N   0  0  0  0  0  0  0  0  0  0  0  0
   -6.5679   -0.9699  -20.2311 C   0  0  0  0  0  0  0  0  0  0  0  0
   -6.8454   -1.3208  -18.9321 C   0  0  0  0  0  0  0  0  0  0  0  0
   -6.1141   -0.9192  -17.8619 N   0  0  0  0  0  0  0  0  0  0  0  0
   -5.0756   -0.1499  -18.0885 C   0  0  0  0  0  0  0  0  0  0  0  0
   -4.6772    0.2950  -19.3833 C   0  0  0  0  0  0  0  0  0  0  0  0
   -3.5755    1.1700  -19.5838 C   0  0  0  0  0  0  0  0  0  0  0  0
   -3.2245    1.5678  -20.8465 C   0  0  0  0  0  0  0  0  0  0  0  0
   -3.9401    1.0923  -21.9679 C   0  0  0  0  0  0  0  0  0  0  0  0
   -5.0140    0.2515  -21.7981 C   0  0  0  0  0  0  0  0  0  0  0  0
   -5.4290   -0.1401  -20.4968 C   0  0  0  0  0  0  0  0  0  0  0  0
   -5.5554   -0.1256  -22.6579 H   0  0  0  0  0  0  0  0  0  0  0  0
   -3.6341    1.3947  -22.9660 H   0  0  0  0  0  0  0  0  0  0  0  0
   -2.3876    2.2453  -21.0011 H   0  0  0  0  0  0  0  0  0  0  0  0
   -3.0302    1.5210  -18.7123 H   0  0  0  0  0  0  0  0  0  0  0  0
   -4.4832    0.1470  -17.2236 H   0  0  0  0  0  0  0  0  0  0  0  0
   -7.6963   -1.9652  -18.7100 H   0  0  0  0  0  0  0  0  0  0  0  0
   -7.7256   -2.7174  -21.4660 C   0  0  0  0  0  0  0  0  0  0  0  0
   -7.1450   -3.6227  -20.9053 O   0  0  0  0  0  0  0  0  0  0  0  0
   -8.8866   -2.8457  -22.4698 C   0  0  1  0  0  0  0  0  0  0  0  0
  -10.1410   -3.2637  -21.6589 C   0  0  0  0  0  0  0  0  0  0  0  0
  -11.2573   -3.6983  -22.4908 N   0  0  0  0  0  0  0  0  0  0  0  0
  -12.6250   -3.4900  -22.0556 C   0  0  0  0  0  0  0  0  0  0  0  0
  -13.3124   -2.3962  -22.7844 C   0  0  0  0  0  0  0  0  0  0  0  0
  -13.8311   -1.5330  -23.3580 N   0  0  0  0  0  0  0  0  0  0  0  0
  -12.6442   -3.2724  -20.9870 H   0  0  0  0  0  0  0  0  0  0  0  0
  -13.1905   -4.4071  -22.2292 H   0  0  0  0  0  0  0  0  0  0  0  0
  -11.0610   -4.5571  -23.5436 C   0  0  0  0  0  0  0  0  0  0  0  0
  -11.9936   -5.1163  -24.1058 O   0  0  0  0  0  0  0  0  0  0  0  0
   -9.6372   -4.7375  -23.9732 C   0  0  0  0  0  0  0  0  0  0  0  0
   -9.3702   -5.7564  -24.8851 C   0  0  0  0  0  0  0  0  0  0  0  0
   -8.0898   -5.9715  -25.3660 C   0  0  0  0  0  0  0  0  0  0  0  0
   -7.0747   -5.1295  -24.9199 C   0  0  0  0  0  0  0  0  0  0  0  0
   -5.8295   -5.3071  -25.4008 F   0  0  0  0  0  0  0  0  0  0  0  0
   -7.3026   -4.1216  -23.9992 C   0  0  0  0  0  0  0  0  0  0  0  0
   -8.6024   -3.9179  -23.5029 C   0  0  0  0  0  0  0  0  0  0  0  0
   -6.4550   -3.5465  -23.6335 H   0  0  0  0  0  0  0  0  0  0  0  0
   -7.8579   -6.7863  -26.0466 H   0  0  0  0  0  0  0  0  0  0  0  0
  -10.2040   -6.3798  -25.1917 H   0  0  0  0  0  0  0  0  0  0  0  0
   -9.8426   -4.0625  -20.9705 H   0  0  0  0  0  0  0  0  0  0  0  0
  -10.4524   -2.4199  -21.0331 H   0  0  0  0  0  0  0  0  0  0  0  0
   -9.1346   -0.1579  -21.2117 H   0  0  0  0  0  0  0  0  0  0  0  0
   -7.8792    0.3951  -22.3352 H   0  0  0  0  0  0  0  0  0  0  0  0
   -8.3170   -1.3566  -23.8972 H   0  0  0  0  0  0  0  0  0  0  0  0
  -10.3747    0.0586  -23.9007 H   0  0  0  0  0  0  0  0  0  0  0  0
  -11.0643   -0.8856  -22.5832 H   0  0  0  0  0  0  0  0  0  0  0  0
  -10.8249   -1.6450  -24.1644 H   0  0  0  0  0  0  0  0  0  0  0  0
  1  2  1  0
  2  3  1  0
  3  4  1  0
  4  5  1  0
  5  6  2  0
  6  7  1  0
  7  8  2  0
  8  9  1  0
  9 10  2  0
 10 11  1  0
 11 12  2  0
 12 13  1  0
 13 14  2  0
 13 15  1  0
 12 16  1  0
 11 17  1  0
 10 18  1  0
  8 19  1  0
  6 20  1  0
  4 21  1  0
 21 22  2  0
 21 23  1  0
 23 24  1  1
 24 25  1  0
 25 26  1  0
 26 27  1  0
 27 28  3  0
 26 29  1  0
 26 30  1  0
 25 31  1  0
 31 32  2  0
 31 33  1  0
 33 34  2  0
 34 35  1  0
 35 36  2  0
 36 37  1  0
 36 38  1  0
 38 39  2  0
 38 40  1  0
 35 41  1  0
 34 42  1  0
 24 43  1  0
 24 44  1  0
  3 45  1  0
  3 46  1  0
  2 47  1  6
  1 48  1  0
  1 49  1  0
  1 50  1  0
 23  2  1  0
 39 33  1  0
 14  5  1  0
 39 23  1  0
 14  9  1  0
M  END
>  <cnnaffinities>  (44) 
[6.4373]

>  <score>  (44) 
6.4373

>  <index>  (44) 
46

>  <Smiles>  (44) 
C([C@]1(C(N(c2c(nc(c3c(c(c(c(c23)[H])[H])[H])[H])[H])[H])C(=O)[C@]21C(N(C(C#N)([H])[H])C(=O)c1c(c(c(F)c(c21)[H])[H])[H])([H])[H])([H])[H])[H])([H])([H])[H]

>  <h>  (44) 
<NA>

>  <Training>  (44) 
True

>  <Success>  (44) 
True

>  <enamine_searched>  (44) 
False

>  <enamine_id>  (44) 
nan

$$$$

     RDKit          3D

 58 63  0  0  0  0  0  0  0  0999 V2000
   -8.5452    0.7237  -21.3950 O   0  0  0  0  0  0  0  0  0  0  0  0
   -8.4811   -0.4036  -21.8548 C   0  0  0  0  0  0  0  0  0  0  0  0
   -7.4729   -1.4167  -21.2918 C   0  0  0  0  0  0  0  0  0  0  0  0
   -6.6073   -0.8345  -20.2085 C   0  0  0  0  0  0  0  0  0  0  0  0
   -6.9139   -1.0769  -18.8941 C   0  0  0  0  0  0  0  0  0  0  0  0
   -6.1746   -0.6803  -17.8277 N   0  0  0  0  0  0  0  0  0  0  0  0
   -5.1038    0.0344  -18.0773 C   0  0  0  0  0  0  0  0  0  0  0  0
   -4.7145    0.4579  -19.3837 C   0  0  0  0  0  0  0  0  0  0  0  0
   -3.6129    1.3260  -19.6125 C   0  0  0  0  0  0  0  0  0  0  0  0
   -3.2343    1.6488  -20.8893 C   0  0  0  0  0  0  0  0  0  0  0  0
   -3.9488    1.1341  -21.9940 C   0  0  0  0  0  0  0  0  0  0  0  0
   -5.0446    0.3289  -21.7962 C   0  0  0  0  0  0  0  0  0  0  0  0
   -5.4688   -0.0172  -20.4840 C   0  0  0  0  0  0  0  0  0  0  0  0
   -5.5940   -0.0540  -22.6515 H   0  0  0  0  0  0  0  0  0  0  0  0
   -3.6202    1.3776  -23.0004 H   0  0  0  0  0  0  0  0  0  0  0  0
   -2.3751    2.2896  -21.0654 H   0  0  0  0  0  0  0  0  0  0  0  0
   -3.0898    1.7383  -18.7520 H   0  0  0  0  0  0  0  0  0  0  0  0
   -4.4897    0.3088  -17.2157 H   0  0  0  0  0  0  0  0  0  0  0  0
   -7.7956   -1.6648  -18.6347 H   0  0  0  0  0  0  0  0  0  0  0  0
   -6.8661   -1.8406  -22.1051 H   0  0  0  0  0  0  0  0  0  0  0  0
   -8.0314   -2.2570  -20.8550 H   0  0  0  0  0  0  0  0  0  0  0  0
   -9.3109   -0.8255  -22.8791 N   0  0  0  0  0  0  0  0  0  0  0  0
   -9.2654   -2.1362  -23.5135 C   0  0  0  0  0  0  0  0  0  0  0  0
   -8.5320   -2.1655  -24.8493 C   0  0  0  0  0  0  0  0  0  0  0  0
   -7.4355   -1.3402  -25.1022 C   0  0  0  0  0  0  0  0  0  0  0  0
   -6.7634   -1.4007  -26.3206 C   0  0  0  0  0  0  0  0  0  0  0  0
   -7.1766   -2.2809  -27.3150 C   0  0  0  0  0  0  0  0  0  0  0  0
   -8.2734   -3.0960  -27.0646 C   0  0  0  0  0  0  0  0  0  0  0  0
   -8.8105   -4.2020  -28.3032 Cl  0  0  0  0  0  0  0  0  0  0  0  0
   -8.9484   -3.0487  -25.8486 C   0  0  0  0  0  0  0  0  0  0  0  0
   -9.7989   -3.7099  -25.6964 H   0  0  0  0  0  0  0  0  0  0  0  0
   -6.6630   -2.3435  -28.2699 H   0  0  0  0  0  0  0  0  0  0  0  0
   -5.9053   -0.7544  -26.4904 H   0  0  0  0  0  0  0  0  0  0  0  0
   -7.0906   -0.6415  -24.3411 H   0  0  0  0  0  0  0  0  0  0  0  0
  -10.2976   -2.4516  -23.6904 H   0  0  0  0  0  0  0  0  0  0  0  0
   -8.8254   -2.8558  -22.8127 H   0  0  0  0  0  0  0  0  0  0  0  0
  -10.2327    0.1547  -23.4108 C   0  0  2  0  0  0  0  0  0  0  0  0
  -11.3769    0.6346  -22.4952 C   0  0  0  0  0  0  0  0  0  0  0  0
  -12.0701    1.5962  -23.4273 N   0  0  1  0  0  4  0  0  0  0  0  0
  -12.2581    2.9579  -22.9047 C   0  0  0  0  0  0  0  0  0  0  0  0
  -13.5449    3.2506  -22.2086 C   0  0  0  0  0  0  0  0  0  0  0  0
  -13.2730    3.8278  -23.5817 C   0  0  0  0  0  0  0  0  0  0  0  0
  -13.0550    4.8871  -23.6790 H   0  0  0  0  0  0  0  0  0  0  0  0
  -13.7989    3.4118  -24.4411 H   0  0  0  0  0  0  0  0  0  0  0  0
  -13.4988    3.9118  -21.3624 H   0  0  0  0  0  0  0  0  0  0  0  0
  -14.2591    2.4385  -22.0832 H   0  0  0  0  0  0  0  0  0  0  0  0
  -11.3400    3.4006  -22.5231 H   0  0  0  0  0  0  0  0  0  0  0  0
  -11.1430    1.4871  -24.6243 C   0  0  2  0  0  0  0  0  0  0  0  0
  -11.0004   -0.0363  -24.7428 C   0  0  0  0  0  0  0  0  0  0  0  0
  -10.3695   -0.3747  -25.5664 H   0  0  0  0  0  0  0  0  0  0  0  0
  -11.9379   -0.6054  -24.6707 H   0  0  0  0  0  0  0  0  0  0  0  0
   -9.7447    1.5142  -23.9876 C   0  0  0  0  0  0  0  0  0  0  0  0
   -8.9304    1.4096  -24.7077 H   0  0  0  0  0  0  0  0  0  0  0  0
   -9.5329    2.2891  -23.2423 H   0  0  0  0  0  0  0  0  0  0  0  0
  -11.4465    2.1351  -25.4301 H   0  0  0  0  0  0  0  0  0  0  0  0
  -13.0177    1.2349  -23.6727 H   0  0  0  0  0  0  0  0  0  0  0  0
  -10.9978    1.1813  -21.6338 H   0  0  0  0  0  0  0  0  0  0  0  0
  -12.0677   -0.1539  -22.1833 H   0  0  0  0  0  0  0  0  0  0  0  0
  1  2  2  0
  2  3  1  0
  3  4  1  0
  4  5  2  0
  5  6  1  0
  6  7  2  0
  7  8  1  0
  8  9  2  0
  9 10  1  0
 10 11  2  0
 11 12  1  0
 12 13  2  0
 12 14  1  0
 11 15  1  0
 10 16  1  0
  9 17  1  0
  7 18  1  0
  5 19  1  0
  3 20  1  0
  3 21  1  0
  2 22  1  0
 22 23  1  0
 23 24  1  0
 24 25  2  0
 25 26  1  0
 26 27  2  0
 27 28  1  0
 28 29  1  0
 28 30  2  0
 30 31  1  0
 27 32  1  0
 26 33  1  0
 25 34  1  0
 23 35  1  0
 23 36  1  0
 37 22  1  1
 37 38  1  0
 38 39  1  0
 39 40  1  0
 40 41  1  0
 41 42  1  0
 42 43  1  0
 42 44  1  0
 41 45  1  0
 41 46  1  0
 40 47  1  0
 39 48  1  0
 48 49  1  0
 49 50  1  0
 49 51  1  0
 48 52  1  0
 52 53  1  0
 52 54  1  0
 48 55  1  6
 39 56  1  6
 38 57  1  0
 38 58  1  0
 13  4  1  0
 30 24  1  0
 49 37  1  0
 13  8  1  0
 52 37  1  0
 42 40  1  0
M  CHG  1  39   1
M  END
>  <cnnaffinities>  (45) 
[5.93577, 6.12436, 5.27972]

>  <score>  (45) 
5.93577

>  <index>  (45) 
47

>  <Smiles>  (45) 
O=C(C(c1c(nc(c2c(c(c(c(c12)[H])[H])[H])[H])[H])[H])([H])[H])N(C(c1c(c(c(c(Cl)c1[H])[H])[H])[H])([H])[H])[C@]12C([N@@+](C3(C(C3([H])[H])([H])[H])[H])([C@](C1([H])[H])(C2([H])[H])[H])[H])([H])[H]

>  <h>  (45) 
<NA>

>  <Training>  (45) 
True

>  <Success>  (45) 
True

>  <enamine_searched>  (45) 
False

>  <enamine_id>  (45) 
nan

$$$$

     RDKit          3D

 46 48  0  0  0  0  0  0  0  0999 V2000
  -13.6441   -2.9842  -24.5883 C   0  0  0  0  0  0  0  0  0  0  0  0
  -13.4849   -2.7263  -23.0849 C   0  0  0  0  0  0  0  0  0  0  0  0
  -13.7371   -4.0277  -22.3190 C   0  0  0  0  0  0  0  0  0  0  0  0
  -13.6388   -3.9002  -21.2348 H   0  0  0  0  0  0  0  0  0  0  0  0
  -14.7395   -4.4218  -22.5210 H   0  0  0  0  0  0  0  0  0  0  0  0
  -13.0163   -4.7849  -22.6434 H   0  0  0  0  0  0  0  0  0  0  0  0
  -12.1290   -2.0915  -22.6766 C   0  0  0  0  0  0  0  0  0  0  0  0
  -10.9088   -3.0304  -22.8562 C   0  0  0  0  0  0  0  0  0  0  0  0
   -9.6313   -2.2477  -23.2068 C   0  0  0  0  0  0  0  0  0  0  0  0
   -9.5810   -0.9571  -22.5261 N   0  0  0  0  0  0  0  0  0  0  0  0
   -8.5327   -0.4411  -21.8140 C   0  0  0  0  0  0  0  0  0  0  0  0
   -8.4515    0.7476  -21.5464 O   0  0  0  0  0  0  0  0  0  0  0  0
   -7.4802   -1.4306  -21.3026 C   0  0  0  0  0  0  0  0  0  0  0  0
   -6.6208   -0.8423  -20.2136 C   0  0  0  0  0  0  0  0  0  0  0  0
   -6.9217   -1.0977  -18.9028 C   0  0  0  0  0  0  0  0  0  0  0  0
   -6.1660   -0.7345  -17.8340 N   0  0  0  0  0  0  0  0  0  0  0  0
   -5.0927   -0.0147  -18.0849 C   0  0  0  0  0  0  0  0  0  0  0  0
   -4.7174    0.4267  -19.3873 C   0  0  0  0  0  0  0  0  0  0  0  0
   -3.6154    1.3008  -19.6061 C   0  0  0  0  0  0  0  0  0  0  0  0
   -3.2426    1.6339  -20.8835 C   0  0  0  0  0  0  0  0  0  0  0  0
   -3.9591    1.1294  -21.9899 C   0  0  0  0  0  0  0  0  0  0  0  0
   -5.0580    0.3268  -21.7987 C   0  0  0  0  0  0  0  0  0  0  0  0
   -5.4783   -0.0280  -20.4868 C   0  0  0  0  0  0  0  0  0  0  0  0
   -5.6113   -0.0400  -22.6544 H   0  0  0  0  0  0  0  0  0  0  0  0
   -3.6264    1.3772  -22.9956 H   0  0  0  0  0  0  0  0  0  0  0  0
   -2.3866    2.2806  -21.0518 H   0  0  0  0  0  0  0  0  0  0  0  0
   -3.0953    1.7123  -18.7441 H   0  0  0  0  0  0  0  0  0  0  0  0
   -4.4587    0.2422  -17.2347 H   0  0  0  0  0  0  0  0  0  0  0  0
   -7.8216   -1.6699  -18.6624 H   0  0  0  0  0  0  0  0  0  0  0  0
   -8.0090   -2.2969  -20.8861 H   0  0  0  0  0  0  0  0  0  0  0  0
   -6.8701   -1.8163  -22.1347 H   0  0  0  0  0  0  0  0  0  0  0  0
  -10.6354   -0.0140  -22.8861 C   0  0  0  0  0  0  0  0  0  0  0  0
  -11.8950   -0.7409  -23.3716 C   0  0  0  0  0  0  0  0  0  0  0  0
  -11.7853   -0.9214  -24.4513 H   0  0  0  0  0  0  0  0  0  0  0  0
  -12.7682   -0.0860  -23.2289 H   0  0  0  0  0  0  0  0  0  0  0  0
  -10.8235    0.5940  -21.9938 H   0  0  0  0  0  0  0  0  0  0  0  0
  -10.2602    0.6751  -23.6566 H   0  0  0  0  0  0  0  0  0  0  0  0
   -9.6170   -2.0774  -24.2950 H   0  0  0  0  0  0  0  0  0  0  0  0
   -8.7400   -2.8277  -22.9572 H   0  0  0  0  0  0  0  0  0  0  0  0
  -10.7661   -3.6122  -21.9320 H   0  0  0  0  0  0  0  0  0  0  0  0
  -11.0807   -3.7581  -23.6624 H   0  0  0  0  0  0  0  0  0  0  0  0
  -12.2145   -1.8901  -21.6002 H   0  0  0  0  0  0  0  0  0  0  0  0
  -14.2574   -1.9963  -22.7932 H   0  0  0  0  0  0  0  0  0  0  0  0
  -12.8745   -3.6724  -24.9640 H   0  0  0  0  0  0  0  0  0  0  0  0
  -14.6174   -3.4505  -24.7905 H   0  0  0  0  0  0  0  0  0  0  0  0
  -13.5972   -2.0616  -25.1760 H   0  0  0  0  0  0  0  0  0  0  0  0
  1  2  1  0
  2  3  1  0
  3  4  1  0
  3  5  1  0
  3  6  1  0
  2  7  1  0
  7  8  1  0
  8  9  1  0
  9 10  1  0
 10 11  1  0
 11 12  2  0
 11 13  1  0
 13 14  1  0
 14 15  2  0
 15 16  1  0
 16 17  2  0
 17 18  1  0
 18 19  2  0
 19 20  1  0
 20 21  2  0
 21 22  1  0
 22 23  2  0
 22 24  1  0
 21 25  1  0
 20 26  1  0
 19 27  1  0
 17 28  1  0
 15 29  1  0
 13 30  1  0
 13 31  1  0
 10 32  1  0
 32 33  1  0
 33 34  1  0
 33 35  1  0
 32 36  1  0
 32 37  1  0
  9 38  1  0
  9 39  1  0
  8 40  1  0
  8 41  1  0
  7 42  1  0
  2 43  1  0
  1 44  1  0
  1 45  1  0
  1 46  1  0
 33  7  1  0
 23 14  1  0
 23 18  1  0
M  END
>  <cnnaffinities>  (46) 
[5.01801, 4.81207, 4.81193, 4.81163, 4.81466, 5.21169, 5.19872, 5.19851, 5.1977]

>  <score>  (46) 
5.01801

>  <index>  (46) 
48

>  <Smiles>  (46) 
C(C(C([H])([H])[H])(C1(C(C(N(C(=O)C(c2c(nc(c3c(c(c(c(c23)[H])[H])[H])[H])[H])[H])([H])[H])C(C1([H])[H])([H])[H])([H])[H])([H])[H])[H])[H])([H])([H])[H]

>  <h>  (46) 
<NA>

>  <Training>  (46) 
True

>  <Success>  (46) 
True

>  <enamine_searched>  (46) 
False

>  <enamine_id>  (46) 
nan

$$$$

     RDKit          3D

 67 72  0  0  0  0  0  0  0  0999 V2000
   -7.4247    3.3779  -21.8101 C   0  0  0  0  0  0  0  0  0  0  0  0
   -8.2626    2.8898  -22.8826 N   0  0  0  0  0  0  0  0  0  0  0  0
   -7.6955    2.2004  -23.9028 C   0  0  0  0  0  0  0  0  0  0  0  0
   -6.4871    2.0849  -24.0218 O   0  0  0  0  0  0  0  0  0  0  0  0
   -8.6584    1.5867  -24.9149 C   0  0  0  0  0  0  0  0  0  0  0  0
   -9.3691    0.4443  -24.3877 N   0  0  0  0  0  0  0  0  0  0  0  0
   -8.6451   -0.8001  -24.2208 C   0  0  0  0  0  0  0  0  0  0  0  0
   -9.0401   -1.5232  -22.9168 C   0  0  2  0  0  0  0  0  0  0  0  0
   -8.5088   -0.7424  -21.6962 C   0  0  0  0  0  0  0  0  0  0  0  0
   -8.9679    0.2670  -21.1997 O   0  0  0  0  0  0  0  0  0  0  0  0
   -7.3875   -1.3833  -21.2371 N   0  0  0  0  0  0  0  0  0  0  0  0
   -6.6081   -0.8333  -20.1988 C   0  0  0  0  0  0  0  0  0  0  0  0
   -6.9309   -1.1049  -18.8964 C   0  0  0  0  0  0  0  0  0  0  0  0
   -6.1711   -0.7374  -17.8391 N   0  0  0  0  0  0  0  0  0  0  0  0
   -5.1037   -0.0148  -18.0904 C   0  0  0  0  0  0  0  0  0  0  0  0
   -4.7156    0.4265  -19.3913 C   0  0  0  0  0  0  0  0  0  0  0  0
   -3.6150    1.2994  -19.6195 C   0  0  0  0  0  0  0  0  0  0  0  0
   -3.2435    1.6337  -20.8940 C   0  0  0  0  0  0  0  0  0  0  0  0
   -3.9619    1.1341  -22.0040 C   0  0  0  0  0  0  0  0  0  0  0  0
   -5.0565    0.3283  -21.8089 C   0  0  0  0  0  0  0  0  0  0  0  0
   -5.4684   -0.0290  -20.4955 C   0  0  0  0  0  0  0  0  0  0  0  0
   -5.6134   -0.0338  -22.6673 H   0  0  0  0  0  0  0  0  0  0  0  0
   -3.6521    1.3885  -23.0128 H   0  0  0  0  0  0  0  0  0  0  0  0
   -2.3878    2.2826  -21.0646 H   0  0  0  0  0  0  0  0  0  0  0  0
   -3.0923    1.7110  -18.7602 H   0  0  0  0  0  0  0  0  0  0  0  0
   -4.4792    0.2594  -17.2400 H   0  0  0  0  0  0  0  0  0  0  0  0
   -7.8440   -1.6564  -18.6765 H   0  0  0  0  0  0  0  0  0  0  0  0
   -7.0426   -2.5925  -21.9430 C   0  0  0  0  0  0  0  0  0  0  0  0
   -8.3028   -2.8890  -22.7650 C   0  0  2  0  0  0  0  0  0  0  0  0
   -7.9744   -3.6800  -24.0389 C   0  0  0  0  0  0  0  0  0  0  0  0
   -7.4527   -4.9964  -23.7510 N   0  0  0  0  0  0  0  0  0  0  0  0
   -6.1245   -5.3081  -23.6474 C   0  0  0  0  0  0  0  0  0  0  0  0
   -5.0261   -4.5788  -23.9983 C   0  0  0  0  0  0  0  0  0  0  0  0
   -3.8038   -5.1716  -23.7842 N   0  0  0  0  0  0  0  0  0  0  0  0
   -3.9460   -6.3666  -23.3012 C   0  0  0  0  0  0  0  0  0  0  0  0
   -2.8135   -7.2906  -22.9873 C   0  0  0  0  0  0  0  0  0  0  0  0
   -3.0257   -7.9237  -22.1194 H   0  0  0  0  0  0  0  0  0  0  0  0
   -2.6013   -7.9492  -23.8406 H   0  0  0  0  0  0  0  0  0  0  0  0
   -1.9197   -6.6918  -22.7979 H   0  0  0  0  0  0  0  0  0  0  0  0
   -5.6028   -6.8565  -23.0355 S   0  0  0  0  0  0  0  0  0  0  0  0
   -5.0475   -3.5929  -24.4426 H   0  0  0  0  0  0  0  0  0  0  0  0
   -8.1089   -5.7230  -23.5209 H   0  0  0  0  0  0  0  0  0  0  0  0
   -8.8655   -3.7849  -24.6691 H   0  0  0  0  0  0  0  0  0  0  0  0
   -7.2268   -3.1373  -24.6222 H   0  0  0  0  0  0  0  0  0  0  0  0
   -8.9563   -3.5223  -22.1647 H   0  0  0  0  0  0  0  0  0  0  0  0
   -6.1624   -2.4477  -22.5875 H   0  0  0  0  0  0  0  0  0  0  0  0
   -6.7946   -3.4025  -21.2511 H   0  0  0  0  0  0  0  0  0  0  0  0
  -10.5529   -1.5753  -22.8523 C   0  0  0  0  0  0  0  0  0  0  0  0
  -11.1938   -2.4632  -21.9827 C   0  0  0  0  0  0  0  0  0  0  0  0
  -12.5746   -2.4714  -21.9012 C   0  0  0  0  0  0  0  0  0  0  0  0
  -13.3511   -3.5591  -20.7863 Cl  0  0  0  0  0  0  0  0  0  0  0  0
  -13.3634   -1.6085  -22.6640 C   0  0  0  0  0  0  0  0  0  0  0  0
  -12.7366   -0.6857  -23.4769 C   0  0  0  0  0  0  0  0  0  0  0  0
  -11.3454   -0.6462  -23.5417 C   0  0  0  0  0  0  0  0  0  0  0  0
  -10.7319    0.4817  -24.3067 C   0  0  0  0  0  0  0  0  0  0  0  0
  -11.4096    1.3833  -24.7916 O   0  0  0  0  0  0  0  0  0  0  0  0
  -13.2910    0.0458  -24.0577 H   0  0  0  0  0  0  0  0  0  0  0  0
  -14.4434   -1.6561  -22.5799 H   0  0  0  0  0  0  0  0  0  0  0  0
  -10.6221   -3.1352  -21.3510 H   0  0  0  0  0  0  0  0  0  0  0  0
   -7.5784   -0.5596  -24.2149 H   0  0  0  0  0  0  0  0  0  0  0  0
   -8.8571   -1.4646  -25.0677 H   0  0  0  0  0  0  0  0  0  0  0  0
   -9.4313    2.2972  -25.2135 H   0  0  0  0  0  0  0  0  0  0  0  0
   -8.0480    1.3008  -25.7767 H   0  0  0  0  0  0  0  0  0  0  0  0
   -9.2394    2.7515  -22.6895 H   0  0  0  0  0  0  0  0  0  0  0  0
   -6.9068    2.5564  -21.3034 H   0  0  0  0  0  0  0  0  0  0  0  0
   -6.6689    4.0538  -22.2041 H   0  0  0  0  0  0  0  0  0  0  0  0
   -8.0298    3.9372  -21.1003 H   0  0  0  0  0  0  0  0  0  0  0  0
  1  2  1  0
  2  3  1  0
  3  4  2  0
  3  5  1  0
  5  6  1  0
  6  7  1  0
  8  7  1  6
  8  9  1  0
  9 10  2  0
  9 11  1  0
 11 12  1  0
 12 13  2  0
 13 14  1  0
 14 15  2  0
 15 16  1  0
 16 17  2  0
 17 18  1  0
 18 19  2  0
 19 20  1  0
 20 21  2  0
 20 22  1  0
 19 23  1  0
 18 24  1  0
 17 25  1  0
 15 26  1  0
 13 27  1  0
 11 28  1  0
 28 29  1  0
 29 30  1  0
 30 31  1  0
 31 32  1  0
 32 33  2  0
 33 34  1  0
 34 35  2  0
 35 36  1  0
 36 37  1  0
 36 38  1  0
 36 39  1  0
 35 40  1  0
 33 41  1  0
 31 42  1  0
 30 43  1  0
 30 44  1  0
 29 45  1  1
 28 46  1  0
 28 47  1  0
  8 48  1  0
 48 49  2  0
 49 50  1  0
 50 51  1  0
 50 52  2  0
 52 53  1  0
 53 54  2  0
 54 55  1  0
 55 56  2  0
 53 57  1  0
 52 58  1  0
 49 59  1  0
  7 60  1  0
  7 61  1  0
  5 62  1  0
  5 63  1  0
  2 64  1  0
  1 65  1  0
  1 66  1  0
  1 67  1  0
 55  6  1  0
 29  8  1  0
 40 32  1  0
 54 48  1  0
 21 12  1  0
 21 16  1  0
M  END
>  <cnnaffinities>  (47) 
[6.69092]

>  <score>  (47) 
6.69092

>  <index>  (47) 
49

>  <Smiles>  (47) 
C(N(C(=O)C(N1C([C@@]2(C(=O)N(c3c(nc(c4c(c(c(c(c34)[H])[H])[H])[H])[H])[H])C([C@@]2(C(N(c2c(nc(C([H])([H])[H])s2)[H])[H])([H])[H])[H])([H])[H])c2c(c(Cl)c(c(c2C1=O)[H])[H])[H])([H])[H])([H])[H])[H])([H])([H])[H]

>  <h>  (47) 
<NA>

>  <Training>  (47) 
True

>  <Success>  (47) 
True

>  <enamine_searched>  (47) 
False

>  <enamine_id>  (47) 
nan

$$$$

     RDKit          3D

 66 70  0  0  0  0  0  0  0  0999 V2000
   -7.4172    3.3684  -21.8189 C   0  0  0  0  0  0  0  0  0  0  0  0
   -8.3018    2.8859  -22.8682 N   0  0  0  0  0  0  0  0  0  0  0  0
   -7.7431    2.1874  -23.8998 C   0  0  0  0  0  0  0  0  0  0  0  0
   -6.5355    2.0500  -24.0315 O   0  0  0  0  0  0  0  0  0  0  0  0
   -8.7339    1.5887  -24.9013 C   0  0  0  0  0  0  0  0  0  0  0  0
   -9.4254    0.4476  -24.3400 N   0  0  0  0  0  0  0  0  0  0  0  0
   -8.6887   -0.7944  -24.1760 C   0  0  0  0  0  0  0  0  0  0  0  0
   -9.0840   -1.5267  -22.8734 C   0  0  2  0  0  0  0  0  0  0  0  0
   -8.5544   -0.7487  -21.6487 C   0  0  0  0  0  0  0  0  0  0  0  0
   -9.0302    0.2473  -21.1369 O   0  0  0  0  0  0  0  0  0  0  0  0
   -7.4117   -1.3752  -21.2246 N   0  0  0  0  0  0  0  0  0  0  0  0
   -6.6113   -0.8432  -20.1945 C   0  0  0  0  0  0  0  0  0  0  0  0
   -6.9261   -1.1183  -18.8935 C   0  0  0  0  0  0  0  0  0  0  0  0
   -6.1549   -0.7741  -17.8377 N   0  0  0  0  0  0  0  0  0  0  0  0
   -5.0884   -0.0534  -18.0930 C   0  0  0  0  0  0  0  0  0  0  0  0
   -4.7107    0.3949  -19.3915 C   0  0  0  0  0  0  0  0  0  0  0  0
   -3.6159    1.2721  -19.6106 C   0  0  0  0  0  0  0  0  0  0  0  0
   -3.2571    1.6236  -20.8820 C   0  0  0  0  0  0  0  0  0  0  0  0
   -3.9770    1.1350  -21.9947 C   0  0  0  0  0  0  0  0  0  0  0  0
   -5.0683    0.3229  -21.8096 C   0  0  0  0  0  0  0  0  0  0  0  0
   -5.4680   -0.0500  -20.4968 C   0  0  0  0  0  0  0  0  0  0  0  0
   -5.6380   -0.0207  -22.6685 H   0  0  0  0  0  0  0  0  0  0  0  0
   -3.6721    1.4049  -22.9998 H   0  0  0  0  0  0  0  0  0  0  0  0
   -2.4064    2.2765  -21.0457 H   0  0  0  0  0  0  0  0  0  0  0  0
   -3.0919    1.6669  -18.7452 H   0  0  0  0  0  0  0  0  0  0  0  0
   -4.4574    0.2200  -17.2486 H   0  0  0  0  0  0  0  0  0  0  0  0
   -7.8502   -1.6465  -18.6754 H   0  0  0  0  0  0  0  0  0  0  0  0
   -7.0700   -2.5780  -21.9483 C   0  0  0  0  0  0  0  0  0  0  0  0
   -8.3428   -2.8915  -22.7430 C   0  0  2  0  0  0  0  0  0  0  0  0
   -8.0096   -3.6606  -24.0129 C   0  0  0  0  0  0  0  0  0  0  0  0
   -9.1830   -3.9077  -24.7600 O   0  0  0  0  0  0  0  0  0  0  0  0
   -8.9753   -4.7171  -25.9215 C   0  0  0  0  0  0  0  0  0  0  0  0
   -9.8690   -4.1628  -27.0218 C   0  0  0  0  0  0  0  0  0  0  0  0
   -9.6310   -3.1114  -27.2076 H   0  0  0  0  0  0  0  0  0  0  0  0
  -10.9159   -4.2332  -26.7146 H   0  0  0  0  0  0  0  0  0  0  0  0
   -9.7303   -4.7178  -27.9561 H   0  0  0  0  0  0  0  0  0  0  0  0
   -9.2929   -6.1815  -25.6180 C   0  0  0  0  0  0  0  0  0  0  0  0
   -8.6438   -6.5808  -24.8291 H   0  0  0  0  0  0  0  0  0  0  0  0
  -10.3332   -6.2785  -25.2876 H   0  0  0  0  0  0  0  0  0  0  0  0
   -9.1535   -6.7949  -26.5177 H   0  0  0  0  0  0  0  0  0  0  0  0
   -7.9201   -4.6425  -26.2446 H   0  0  0  0  0  0  0  0  0  0  0  0
   -7.5135   -4.6094  -23.7408 H   0  0  0  0  0  0  0  0  0  0  0  0
   -7.2939   -3.0792  -24.6197 H   0  0  0  0  0  0  0  0  0  0  0  0
   -8.9741   -3.5403  -22.1369 H   0  0  0  0  0  0  0  0  0  0  0  0
   -6.8030   -3.3741  -21.2456 H   0  0  0  0  0  0  0  0  0  0  0  0
   -6.2071   -2.4162  -22.6156 H   0  0  0  0  0  0  0  0  0  0  0  0
  -10.5929   -1.5935  -22.8144 C   0  0  0  0  0  0  0  0  0  0  0  0
  -11.2226   -2.5093  -21.9680 C   0  0  0  0  0  0  0  0  0  0  0  0
  -12.5983   -2.5200  -21.8847 C   0  0  0  0  0  0  0  0  0  0  0  0
  -13.1828   -3.4041  -21.0633 F   0  0  0  0  0  0  0  0  0  0  0  0
  -13.4082   -1.6510  -22.6068 C   0  0  0  0  0  0  0  0  0  0  0  0
  -12.7847   -0.7176  -23.4073 C   0  0  0  0  0  0  0  0  0  0  0  0
  -11.3948   -0.6633  -23.4892 C   0  0  0  0  0  0  0  0  0  0  0  0
  -10.7904    0.4714  -24.2542 C   0  0  0  0  0  0  0  0  0  0  0  0
  -11.4655    1.3697  -24.7336 O   0  0  0  0  0  0  0  0  0  0  0  0
  -13.3478    0.0123  -23.9748 H   0  0  0  0  0  0  0  0  0  0  0  0
  -14.4870   -1.7039  -22.5073 H   0  0  0  0  0  0  0  0  0  0  0  0
  -10.6609   -3.2034  -21.3538 H   0  0  0  0  0  0  0  0  0  0  0  0
   -8.8955   -1.4658  -25.0152 H   0  0  0  0  0  0  0  0  0  0  0  0
   -7.6155   -0.5716  -24.1745 H   0  0  0  0  0  0  0  0  0  0  0  0
   -9.4982    2.3173  -25.1899 H   0  0  0  0  0  0  0  0  0  0  0  0
   -8.1659    1.2905  -25.7897 H   0  0  0  0  0  0  0  0  0  0  0  0
   -9.2636    2.6938  -22.6151 H   0  0  0  0  0  0  0  0  0  0  0  0
   -6.6356    3.9884  -22.2656 H   0  0  0  0  0  0  0  0  0  0  0  0
   -6.9339    2.5359  -21.2753 H   0  0  0  0  0  0  0  0  0  0  0  0
   -7.9806    4.0053  -21.1333 H   0  0  0  0  0  0  0  0  0  0  0  0
  1  2  1  0
  2  3  1  0
  3  4  2  0
  3  5  1  0
  5  6  1  0
  6  7  1  0
  8  7  1  6
  8  9  1  0
  9 10  2  0
  9 11  1  0
 11 12  1  0
 12 13  2  0
 13 14  1  0
 14 15  2  0
 15 16  1  0
 16 17  2  0
 17 18  1  0
 18 19  2  0
 19 20  1  0
 20 21  2  0
 20 22  1  0
 19 23  1  0
 18 24  1  0
 17 25  1  0
 15 26  1  0
 13 27  1  0
 11 28  1  0
 28 29  1  0
 29 30  1  0
 30 31  1  0
 31 32  1  0
 32 33  1  0
 33 34  1  0
 33 35  1  0
 33 36  1  0
 32 37  1  0
 37 38  1  0
 37 39  1  0
 37 40  1  0
 32 41  1  0
 30 42  1  0
 30 43  1  0
 29 44  1  1
 28 45  1  0
 28 46  1  0
  8 47  1  0
 47 48  2  0
 48 49  1  0
 49 50  1  0
 49 51  2  0
 51 52  1  0
 52 53  2  0
 53 54  1  0
 54 55  2  0
 52 56  1  0
 51 57  1  0
 48 58  1  0
  7 59  1  0
  7 60  1  0
  5 61  1  0
  5 62  1  0
  2 63  1  0
  1 64  1  0
  1 65  1  0
  1 66  1  0
 54  6  1  0
 29  8  1  0
 53 47  1  0
 21 12  1  0
 21 16  1  0
M  END
>  <cnnaffinities>  (48) 
[6.35609, 6.35063]

>  <score>  (48) 
6.35609

>  <index>  (48) 
50

>  <Smiles>  (48) 
C(N(C(=O)C(N1C([C@@]2(C(=O)N(c3c(nc(c4c(c(c(c(c34)[H])[H])[H])[H])[H])[H])C([C@@]2(C(OC(C([H])([H])[H])(C([H])([H])[H])[H])([H])[H])[H])([H])[H])c2c(c(F)c(c(c2C1=O)[H])[H])[H])([H])[H])([H])[H])[H])([H])([H])[H]

>  <h>  (48) 
<NA>

>  <Training>  (48) 
True

>  <Success>  (48) 
True

>  <enamine_searched>  (48) 
False

>  <enamine_id>  (48) 
nan

$$$$

     RDKit          3D

 50 52  0  0  0  0  0  0  0  0999 V2000
  -11.3071   -0.3466  -25.0680 C   0  0  0  0  0  0  0  0  0  0  0  0
  -10.7054   -0.0230  -23.9344 C   0  0  0  0  0  0  0  0  0  0  0  0
  -10.6867   -0.9776  -22.7658 C   0  0  0  0  0  0  0  0  0  0  0  0
   -9.3420   -1.4846  -22.5153 N   0  0  0  0  0  0  0  0  0  0  0  0
   -8.6503   -0.8766  -21.4830 C   0  0  0  0  0  0  0  0  0  0  0  0
   -9.1531   -0.0203  -20.7618 O   0  0  0  0  0  0  0  0  0  0  0  0
   -7.3827   -1.3326  -21.2802 N   0  0  0  0  0  0  0  0  0  0  0  0
   -6.6057   -0.8344  -20.2196 C   0  0  0  0  0  0  0  0  0  0  0  0
   -6.9411   -1.1030  -18.9179 C   0  0  0  0  0  0  0  0  0  0  0  0
   -6.1861   -0.7315  -17.8630 N   0  0  0  0  0  0  0  0  0  0  0  0
   -5.1241   -0.0001  -18.1060 C   0  0  0  0  0  0  0  0  0  0  0  0
   -4.7290    0.4337  -19.4066 C   0  0  0  0  0  0  0  0  0  0  0  0
   -3.6335    1.3096  -19.6315 C   0  0  0  0  0  0  0  0  0  0  0  0
   -3.2677    1.6482  -20.9075 C   0  0  0  0  0  0  0  0  0  0  0  0
   -3.9821    1.1491  -22.0184 C   0  0  0  0  0  0  0  0  0  0  0  0
   -5.0765    0.3376  -21.8257 C   0  0  0  0  0  0  0  0  0  0  0  0
   -5.4701   -0.0328  -20.5112 C   0  0  0  0  0  0  0  0  0  0  0  0
   -5.6386   -0.0289  -22.6808 H   0  0  0  0  0  0  0  0  0  0  0  0
   -3.6597    1.4035  -23.0241 H   0  0  0  0  0  0  0  0  0  0  0  0
   -2.4138    2.2991  -21.0786 H   0  0  0  0  0  0  0  0  0  0  0  0
   -3.1080    1.7132  -18.7711 H   0  0  0  0  0  0  0  0  0  0  0  0
   -4.5152    0.2921  -17.2489 H   0  0  0  0  0  0  0  0  0  0  0  0
   -7.8502   -1.6577  -18.6990 H   0  0  0  0  0  0  0  0  0  0  0  0
   -6.9689   -1.9388  -21.9690 H   0  0  0  0  0  0  0  0  0  0  0  0
   -8.7436   -2.2268  -23.5815 C   0  0  0  0  0  0  0  0  0  0  0  0
   -9.1885   -3.5193  -23.8568 C   0  0  0  0  0  0  0  0  0  0  0  0
   -8.5902   -4.2497  -24.8777 C   0  0  0  0  0  0  0  0  0  0  0  0
   -7.5958   -3.6868  -25.6692 C   0  0  0  0  0  0  0  0  0  0  0  0
   -7.2184   -2.3750  -25.4261 C   0  0  0  0  0  0  0  0  0  0  0  0
   -5.9838   -1.6512  -26.4120 Cl  0  0  0  0  0  0  0  0  0  0  0  0
   -7.7871   -1.6303  -24.4030 C   0  0  0  0  0  0  0  0  0  0  0  0
   -7.4979   -0.5926  -24.2530 H   0  0  0  0  0  0  0  0  0  0  0  0
   -7.1145   -4.2491  -26.4625 H   0  0  0  0  0  0  0  0  0  0  0  0
   -8.9069   -5.2708  -25.0628 H   0  0  0  0  0  0  0  0  0  0  0  0
   -9.9859   -3.9564  -23.2574 H   0  0  0  0  0  0  0  0  0  0  0  0
  -11.3674   -1.8115  -22.9814 H   0  0  0  0  0  0  0  0  0  0  0  0
  -11.0019   -0.5151  -21.8386 H   0  0  0  0  0  0  0  0  0  0  0  0
   -9.8168    1.1955  -24.0069 C   0  0  0  0  0  0  0  0  0  0  0  0
   -9.4922    1.6603  -25.0987 O   0  0  0  0  0  0  0  0  0  0  0  0
   -9.3427    1.7525  -22.8717 N   0  0  0  0  0  0  0  0  0  0  0  0
   -8.1111    2.5099  -23.0012 C   0  0  0  0  0  0  0  0  0  0  0  0
   -7.5154    2.8707  -21.6552 C   0  0  0  0  0  0  0  0  0  0  0  0
   -7.5239    2.0158  -20.9671 H   0  0  0  0  0  0  0  0  0  0  0  0
   -6.4755    3.1912  -21.7696 H   0  0  0  0  0  0  0  0  0  0  0  0
   -8.0560    3.7059  -21.2082 H   0  0  0  0  0  0  0  0  0  0  0  0
   -7.3880    1.8970  -23.5591 H   0  0  0  0  0  0  0  0  0  0  0  0
   -8.3226    3.3973  -23.6104 H   0  0  0  0  0  0  0  0  0  0  0  0
   -9.5605    1.3594  -21.9653 H   0  0  0  0  0  0  0  0  0  0  0  0
  -11.0794    0.2411  -25.9443 H   0  0  0  0  0  0  0  0  0  0  0  0
  -12.0323   -1.1445  -25.1449 H   0  0  0  0  0  0  0  0  0  0  0  0
  1  2  2  0
  2  3  1  0
  3  4  1  0
  4  5  1  0
  5  6  2  0
  5  7  1  0
  7  8  1  0
  8  9  2  0
  9 10  1  0
 10 11  2  0
 11 12  1  0
 12 13  2  0
 13 14  1  0
 14 15  2  0
 15 16  1  0
 16 17  2  0
 16 18  1  0
 15 19  1  0
 14 20  1  0
 13 21  1  0
 11 22  1  0
  9 23  1  0
  7 24  1  0
  4 25  1  0
 25 26  2  0
 26 27  1  0
 27 28  2  0
 28 29  1  0
 29 30  1  0
 29 31  2  0
 31 32  1  0
 28 33  1  0
 27 34  1  0
 26 35  1  0
  3 36  1  0
  3 37  1  0
  2 38  1  0
 38 39  2  0
 38 40  1  0
 40 41  1  0
 41 42  1  0
 42 43  1  0
 42 44  1  0
 42 45  1  0
 41 46  1  0
 41 47  1  0
 40 48  1  0
  1 49  1  0
  1 50  1  0
 17  8  1  0
 31 25  1  0
 17 12  1  0
M  END
>  <cnnaffinities>  (49) 
[5.85602]

>  <score>  (49) 
5.85602

>  <index>  (49) 
51

>  <Smiles>  (49) 
C(=C(C(N(C(=O)N(c1c(nc(c2c(c(c(c(c12)[H])[H])[H])[H])[H])[H])[H])c1c(c(c(c(Cl)c1[H])[H])[H])[H])([H])[H])C(=O)N(C(C([H])([H])[H])([H])[H])[H])([H])[H]

>  <h>  (49) 
<NA>

>  <Training>  (49) 
True

>  <Success>  (49) 
True

>  <enamine_searched>  (49) 
False

>  <enamine_id>  (49) 
nan

$$$$

     RDKit          3D

 57 60  0  0  0  0  0  0  0  0999 V2000
   -2.4104   -6.6169  -28.2909 C   0  0  0  0  0  0  0  0  0  0  0  0
   -3.6431   -5.6943  -28.3054 C   0  0  0  0  0  0  0  0  0  0  0  0
   -4.1313   -5.3456  -26.8981 C   0  0  0  0  0  0  0  0  0  0  0  0
   -3.7311   -4.3534  -26.3144 O   0  0  0  0  0  0  0  0  0  0  0  0
   -5.0179   -6.2334  -26.3334 N   0  0  0  0  0  0  0  0  0  0  0  0
   -5.6620   -6.0207  -25.0880 C   0  0  0  0  0  0  0  0  0  0  0  0
   -5.9064   -7.1050  -24.2421 C   0  0  0  0  0  0  0  0  0  0  0  0
   -6.5568   -6.8972  -23.0337 C   0  0  0  0  0  0  0  0  0  0  0  0
   -6.9633   -5.6269  -22.6433 C   0  0  0  0  0  0  0  0  0  0  0  0
   -6.7297   -4.5422  -23.4889 C   0  0  0  0  0  0  0  0  0  0  0  0
   -7.1607   -3.2263  -23.1100 N   0  0  0  0  0  0  0  0  0  0  0  0
   -8.1520   -2.5639  -23.9484 C   0  0  0  0  0  0  0  0  0  0  0  0
   -9.5705   -2.6674  -23.4196 C   0  0  0  0  0  0  0  0  0  0  0  0
  -10.1617   -3.9202  -23.2927 C   0  0  0  0  0  0  0  0  0  0  0  0
  -11.4582   -4.0348  -22.8100 C   0  0  0  0  0  0  0  0  0  0  0  0
  -12.1821   -2.9145  -22.4162 C   0  0  0  0  0  0  0  0  0  0  0  0
  -11.6071   -1.6555  -22.5549 C   0  0  0  0  0  0  0  0  0  0  0  0
  -10.3149   -1.5404  -23.0659 C   0  0  0  0  0  0  0  0  0  0  0  0
   -9.8734   -0.5505  -23.1739 H   0  0  0  0  0  0  0  0  0  0  0  0
  -12.1641   -0.7651  -22.2688 H   0  0  0  0  0  0  0  0  0  0  0  0
  -13.1890   -3.0282  -22.0203 H   0  0  0  0  0  0  0  0  0  0  0  0
  -11.9056   -5.0150  -22.7778 H   0  0  0  0  0  0  0  0  0  0  0  0
   -9.6028   -4.8121  -23.5787 H   0  0  0  0  0  0  0  0  0  0  0  0
   -8.0782   -3.0590  -24.9234 H   0  0  0  0  0  0  0  0  0  0  0  0
   -7.8901   -1.5096  -24.0852 H   0  0  0  0  0  0  0  0  0  0  0  0
   -6.7042   -2.7259  -21.9011 C   0  0  0  0  0  0  0  0  0  0  0  0
   -5.7991   -3.2828  -21.3036 O   0  0  0  0  0  0  0  0  0  0  0  0
   -7.3960   -1.4748  -21.3082 C   0  0  0  0  0  0  0  0  0  0  0  0
   -6.5917   -0.8371  -20.2096 C   0  0  0  0  0  0  0  0  0  0  0  0
   -6.9056   -1.0747  -18.8995 C   0  0  0  0  0  0  0  0  0  0  0  0
   -6.1806   -0.6565  -17.8310 N   0  0  0  0  0  0  0  0  0  0  0  0
   -5.1103    0.0564  -18.0737 C   0  0  0  0  0  0  0  0  0  0  0  0
   -4.7073    0.4686  -19.3786 C   0  0  0  0  0  0  0  0  0  0  0  0
   -3.5990    1.3298  -19.6149 C   0  0  0  0  0  0  0  0  0  0  0  0
   -3.2045    1.6281  -20.8900 C   0  0  0  0  0  0  0  0  0  0  0  0
   -3.9071    1.0901  -21.9927 C   0  0  0  0  0  0  0  0  0  0  0  0
   -5.0020    0.2898  -21.7923 C   0  0  0  0  0  0  0  0  0  0  0  0
   -5.4490   -0.0245  -20.4806 C   0  0  0  0  0  0  0  0  0  0  0  0
   -5.5325   -0.1257  -22.6435 H   0  0  0  0  0  0  0  0  0  0  0  0
   -3.5752    1.3133  -23.0030 H   0  0  0  0  0  0  0  0  0  0  0  0
   -2.3388    2.2608  -21.0741 H   0  0  0  0  0  0  0  0  0  0  0  0
   -3.0779    1.7504  -18.7578 H   0  0  0  0  0  0  0  0  0  0  0  0
   -4.5025    0.3237  -17.2033 H   0  0  0  0  0  0  0  0  0  0  0  0
   -7.7720   -1.6795  -18.6224 H   0  0  0  0  0  0  0  0  0  0  0  0
   -7.6426   -0.7411  -22.0828 H   0  0  0  0  0  0  0  0  0  0  0  0
   -8.3560   -1.7991  -20.8808 H   0  0  0  0  0  0  0  0  0  0  0  0
   -6.0954   -4.7454  -24.7161 C   0  0  0  0  0  0  0  0  0  0  0  0
   -5.9278   -3.9094  -25.3889 H   0  0  0  0  0  0  0  0  0  0  0  0
   -7.4520   -5.4812  -21.6854 H   0  0  0  0  0  0  0  0  0  0  0  0
   -6.7256   -7.7472  -22.3797 H   0  0  0  0  0  0  0  0  0  0  0  0
   -5.5537   -8.0988  -24.5048 H   0  0  0  0  0  0  0  0  0  0  0  0
   -5.1384   -7.1363  -26.7717 H   0  0  0  0  0  0  0  0  0  0  0  0
   -4.4401   -6.1320  -28.9241 H   0  0  0  0  0  0  0  0  0  0  0  0
   -3.3775   -4.7319  -28.7513 H   0  0  0  0  0  0  0  0  0  0  0  0
   -2.0364   -6.8000  -29.3078 H   0  0  0  0  0  0  0  0  0  0  0  0
   -1.5963   -6.1592  -27.7183 H   0  0  0  0  0  0  0  0  0  0  0  0
   -2.6443   -7.5885  -27.8386 H   0  0  0  0  0  0  0  0  0  0  0  0
  1  2  1  0
  2  3  1  0
  3  4  2  0
  3  5  1  0
  5  6  1  0
  6  7  2  0
  7  8  1  0
  8  9  2  0
  9 10  1  0
 10 11  1  0
 11 12  1  0
 12 13  1  0
 13 14  2  0
 14 15  1  0
 15 16  2  0
 16 17  1  0
 17 18  2  0
 18 19  1  0
 17 20  1  0
 16 21  1  0
 15 22  1  0
 14 23  1  0
 12 24  1  0
 12 25  1  0
 11 26  1  0
 26 27  2  0
 26 28  1  0
 28 29  1  0
 29 30  2  0
 30 31  1  0
 31 32  2  0
 32 33  1  0
 33 34  2  0
 34 35  1  0
 35 36  2  0
 36 37  1  0
 37 38  2  0
 37 39  1  0
 36 40  1  0
 35 41  1  0
 34 42  1  0
 32 43  1  0
 30 44  1  0
 28 45  1  0
 28 46  1  0
 10 47  2  0
 47 48  1  0
  9 49  1  0
  8 50  1  0
  7 51  1  0
  5 52  1  0
  2 53  1  0
  2 54  1  0
  1 55  1  0
  1 56  1  0
  1 57  1  0
 47  6  1  0
 18 13  1  0
 38 29  1  0
 38 33  1  0
M  END
>  <cnnaffinities>  (50) 
[5.94299, 5.66202, 5.66128, 5.88256, 5.96317, 5.63938, 5.63648, 5.77731, 5.75936, 5.91155, 5.88396, 5.88045]

>  <score>  (50) 
5.94299

>  <index>  (50) 
52

>  <Smiles>  (50) 
C(C(C(=O)N(c1c(c(c(c(N(C(c2c(c(c(c(c2[H])[H])[H])[H])[H])([H])[H])C(=O)C(c2c(nc(c3c(c(c(c(c23)[H])[H])[H])[H])[H])[H])([H])[H])c1[H])[H])[H])[H])[H])([H])[H])([H])([H])[H]

>  <h>  (50) 
<NA>

>  <Training>  (50) 
True

>  <Success>  (50) 
True

>  <enamine_searched>  (50) 
False

>  <enamine_id>  (50) 
nan

$$$$

     RDKit          3D

 59 63  0  0  0  0  0  0  0  0999 V2000
   -7.7362    4.3997  -22.3417 C   0  0  0  0  0  0  0  0  0  0  0  0
   -6.8372    3.4642  -23.1203 C   0  0  0  0  0  0  0  0  0  0  0  0
   -7.6299    2.7217  -24.0914 N   0  0  0  0  0  0  0  0  0  0  0  0
   -7.0261    1.7156  -24.7775 C   0  0  0  0  0  0  0  0  0  0  0  0
   -5.8245    1.5036  -24.7192 O   0  0  0  0  0  0  0  0  0  0  0  0
   -7.9359    0.8718  -25.6670 C   0  0  0  0  0  0  0  0  0  0  0  0
   -8.8838    0.0913  -24.9057 N   0  0  0  0  0  0  0  0  0  0  0  0
   -8.4823   -1.1988  -24.3769 C   0  0  0  0  0  0  0  0  0  0  0  0
   -9.0536   -1.4542  -22.9607 C   0  0  2  0  0  0  0  0  0  0  0  0
   -8.2971   -0.5542  -21.9650 C   0  0  0  0  0  0  0  0  0  0  0  0
   -8.3847    0.6502  -21.8648 O   0  0  0  0  0  0  0  0  0  0  0  0
   -7.4605   -1.3394  -21.2147 N   0  0  0  0  0  0  0  0  0  0  0  0
   -6.6234   -0.8318  -20.2007 C   0  0  0  0  0  0  0  0  0  0  0  0
   -6.9074   -1.1377  -18.8956 C   0  0  0  0  0  0  0  0  0  0  0  0
   -6.1467   -0.7760  -17.8392 N   0  0  0  0  0  0  0  0  0  0  0  0
   -5.0913   -0.0391  -18.0970 C   0  0  0  0  0  0  0  0  0  0  0  0
   -4.7190    0.3997  -19.4005 C   0  0  0  0  0  0  0  0  0  0  0  0
   -3.6157    1.2691  -19.6156 C   0  0  0  0  0  0  0  0  0  0  0  0
   -3.2251    1.5927  -20.8850 C   0  0  0  0  0  0  0  0  0  0  0  0
   -3.9226    1.0767  -22.0010 C   0  0  0  0  0  0  0  0  0  0  0  0
   -5.0205    0.2731  -21.8206 C   0  0  0  0  0  0  0  0  0  0  0  0
   -5.4696   -0.0540  -20.5080 C   0  0  0  0  0  0  0  0  0  0  0  0
   -5.5427   -0.1089  -22.6926 H   0  0  0  0  0  0  0  0  0  0  0  0
   -3.6080    1.3314  -23.0088 H   0  0  0  0  0  0  0  0  0  0  0  0
   -2.3679    2.2392  -21.0466 H   0  0  0  0  0  0  0  0  0  0  0  0
   -3.1047    1.6806  -18.7496 H   0  0  0  0  0  0  0  0  0  0  0  0
   -4.4586    0.2434  -17.2560 H   0  0  0  0  0  0  0  0  0  0  0  0
   -7.8225   -1.6870  -18.6748 H   0  0  0  0  0  0  0  0  0  0  0  0
   -7.4834   -2.7408  -21.5413 C   0  0  0  0  0  0  0  0  0  0  0  0
   -8.7004   -2.8950  -22.4689 C   0  0  2  0  0  0  0  0  0  0  0  0
   -8.4435   -3.9667  -23.5332 C   0  0  0  0  0  0  0  0  0  0  0  0
   -8.2507   -4.9395  -23.0628 H   0  0  0  0  0  0  0  0  0  0  0  0
   -7.5596   -3.7168  -24.1331 H   0  0  0  0  0  0  0  0  0  0  0  0
   -9.2923   -4.0912  -24.2150 H   0  0  0  0  0  0  0  0  0  0  0  0
   -9.5377   -3.2383  -21.8632 H   0  0  0  0  0  0  0  0  0  0  0  0
   -6.5484   -3.0420  -22.0378 H   0  0  0  0  0  0  0  0  0  0  0  0
   -7.5748   -3.3380  -20.6285 H   0  0  0  0  0  0  0  0  0  0  0  0
  -10.5362   -1.1099  -22.9678 C   0  0  0  0  0  0  0  0  0  0  0  0
  -11.4131   -1.6362  -22.0135 C   0  0  0  0  0  0  0  0  0  0  0  0
  -12.7658   -1.3457  -22.0793 C   0  0  0  0  0  0  0  0  0  0  0  0
  -13.8543   -2.2252  -21.0369 Cl  0  0  0  0  0  0  0  0  0  0  0  0
  -13.2750   -0.4070  -22.9743 C   0  0  0  0  0  0  0  0  0  0  0  0
  -12.4017    0.1623  -23.8770 C   0  0  0  0  0  0  0  0  0  0  0  0
  -11.0616   -0.2056  -23.9004 C   0  0  0  0  0  0  0  0  0  0  0  0
  -10.1830    0.5029  -24.8777 C   0  0  0  0  0  0  0  0  0  0  0  0
  -10.5896    1.4311  -25.5675 O   0  0  0  0  0  0  0  0  0  0  0  0
  -12.7134    0.9065  -24.5977 H   0  0  0  0  0  0  0  0  0  0  0  0
  -14.3202   -0.1199  -22.9401 H   0  0  0  0  0  0  0  0  0  0  0  0
  -11.0433   -2.2543  -21.2000 H   0  0  0  0  0  0  0  0  0  0  0  0
   -7.3857   -1.2443  -24.3592 H   0  0  0  0  0  0  0  0  0  0  0  0
   -8.8508   -1.9898  -25.0393 H   0  0  0  0  0  0  0  0  0  0  0  0
   -7.2944    0.2060  -26.2493 H   0  0  0  0  0  0  0  0  0  0  0  0
   -8.5261    1.5177  -26.3251 H   0  0  0  0  0  0  0  0  0  0  0  0
   -8.6356    2.7228  -23.9559 H   0  0  0  0  0  0  0  0  0  0  0  0
   -6.3502    2.7612  -22.4298 H   0  0  0  0  0  0  0  0  0  0  0  0
   -6.0373    3.9860  -23.6519 H   0  0  0  0  0  0  0  0  0  0  0  0
   -8.4787    3.7824  -21.8398 H   0  0  0  0  0  0  0  0  0  0  0  0
   -8.2583    5.1098  -22.9899 H   0  0  0  0  0  0  0  0  0  0  0  0
   -7.1890    4.9587  -21.5760 H   0  0  0  0  0  0  0  0  0  0  0  0
  1  2  1  0
  2  3  1  0
  3  4  1  0
  4  5  2  0
  4  6  1  0
  6  7  1  0
  7  8  1  0
  9  8  1  6
  9 10  1  0
 10 11  2  0
 10 12  1  0
 12 13  1  0
 13 14  2  0
 14 15  1  0
 15 16  2  0
 16 17  1  0
 17 18  2  0
 18 19  1  0
 19 20  2  0
 20 21  1  0
 21 22  2  0
 21 23  1  0
 20 24  1  0
 19 25  1  0
 18 26  1  0
 16 27  1  0
 14 28  1  0
 12 29  1  0
 29 30  1  0
 30 31  1  0
 31 32  1  0
 31 33  1  0
 31 34  1  0
 30 35  1  1
 29 36  1  0
 29 37  1  0
  9 38  1  0
 38 39  2  0
 39 40  1  0
 40 41  1  0
 40 42  2  0
 42 43  1  0
 43 44  2  0
 44 45  1  0
 45 46  2  0
 43 47  1  0
 42 48  1  0
 39 49  1  0
  8 50  1  0
  8 51  1  0
  6 52  1  0
  6 53  1  0
  3 54  1  0
  2 55  1  0
  2 56  1  0
  1 57  1  0
  1 58  1  0
  1 59  1  0
 45  7  1  0
 30  9  1  0
 44 38  1  0
 22 13  1  0
 22 17  1  0
M  END
>  <cnnaffinities>  (51) 
[6.16323]

>  <score>  (51) 
6.16323

>  <index>  (51) 
53

>  <Smiles>  (51) 
C(C(N(C(=O)C(N1C([C@@]2(C(=O)N(c3c(nc(c4c(c(c(c(c34)[H])[H])[H])[H])[H])[H])C([C@@]2(C([H])([H])[H])[H])([H])[H])c2c(c(Cl)c(c(c2C1=O)[H])[H])[H])([H])[H])([H])[H])[H])([H])[H])([H])([H])[H]

>  <h>  (51) 
<NA>

>  <Training>  (51) 
True

>  <Success>  (51) 
True

>  <enamine_searched>  (51) 
False

>  <enamine_id>  (51) 
nan

$$$$

     RDKit          3D

 40 43  0  0  0  0  0  0  0  0999 V2000
  -10.3061   -2.6096  -22.7983 C   0  0  0  0  0  0  0  0  0  0  0  0
   -8.9624   -2.1717  -22.4850 N   0  0  0  0  0  0  0  0  0  0  0  0
   -7.7709   -2.7010  -22.8947 C   0  0  0  0  0  0  0  0  0  0  0  0
   -7.6269   -3.6057  -24.0562 C   0  0  0  0  0  0  0  0  0  0  0  0
   -7.7679   -5.0653  -23.6716 C   0  0  0  0  0  0  0  0  0  0  0  0
   -8.8223   -5.8437  -24.1442 C   0  0  0  0  0  0  0  0  0  0  0  0
   -8.8560   -7.2133  -23.8944 C   0  0  0  0  0  0  0  0  0  0  0  0
   -7.8381   -7.8056  -23.1405 C   0  0  0  0  0  0  0  0  0  0  0  0
   -6.8545   -7.0092  -22.5564 C   0  0  0  0  0  0  0  0  0  0  0  0
   -6.8220   -5.6417  -22.8205 C   0  0  0  0  0  0  0  0  0  0  0  0
   -6.0379   -5.0142  -22.4002 H   0  0  0  0  0  0  0  0  0  0  0  0
   -6.1110   -7.4604  -21.8983 H   0  0  0  0  0  0  0  0  0  0  0  0
   -7.8341   -8.8789  -22.9743 H   0  0  0  0  0  0  0  0  0  0  0  0
   -9.6694   -7.8134  -24.3029 H   0  0  0  0  0  0  0  0  0  0  0  0
   -9.6415   -5.3781  -24.6996 H   0  0  0  0  0  0  0  0  0  0  0  0
   -8.3526   -3.3283  -24.8274 H   0  0  0  0  0  0  0  0  0  0  0  0
   -6.6393   -3.4002  -24.4802 H   0  0  0  0  0  0  0  0  0  0  0  0
   -6.7734   -2.2853  -22.1706 N   0  0  0  0  0  0  0  0  0  0  0  0
   -7.3321   -1.3772  -21.3180 N   0  0  0  0  0  0  0  0  0  0  0  0
   -6.5953   -0.8501  -20.2477 C   0  0  0  0  0  0  0  0  0  0  0  0
   -6.9349   -1.1369  -18.9501 C   0  0  0  0  0  0  0  0  0  0  0  0
   -6.1775   -0.7883  -17.8872 N   0  0  0  0  0  0  0  0  0  0  0  0
   -5.1074   -0.0682  -18.1289 C   0  0  0  0  0  0  0  0  0  0  0  0
   -4.7155    0.3781  -19.4198 C   0  0  0  0  0  0  0  0  0  0  0  0
   -3.6191    1.2509  -19.6115 C   0  0  0  0  0  0  0  0  0  0  0  0
   -3.2546    1.6205  -20.8747 C   0  0  0  0  0  0  0  0  0  0  0  0
   -3.9640    1.1449  -22.0017 C   0  0  0  0  0  0  0  0  0  0  0  0
   -5.0489    0.3255  -21.8439 C   0  0  0  0  0  0  0  0  0  0  0  0
   -5.4541   -0.0620  -20.5368 C   0  0  0  0  0  0  0  0  0  0  0  0
   -5.5995   -0.0503  -22.7011 H   0  0  0  0  0  0  0  0  0  0  0  0
   -3.6536    1.4412  -22.9978 H   0  0  0  0  0  0  0  0  0  0  0  0
   -2.4199    2.2950  -21.0215 H   0  0  0  0  0  0  0  0  0  0  0  0
   -3.1082    1.6262  -18.7295 H   0  0  0  0  0  0  0  0  0  0  0  0
   -4.4925    0.2080  -17.2733 H   0  0  0  0  0  0  0  0  0  0  0  0
   -7.8510   -1.6799  -18.7299 H   0  0  0  0  0  0  0  0  0  0  0  0
   -8.6867   -1.2159  -21.5181 C   0  0  0  0  0  0  0  0  0  0  0  0
   -9.4294   -0.4037  -21.0087 O   0  0  0  0  0  0  0  0  0  0  0  0
  -10.5076   -3.6019  -22.3770 H   0  0  0  0  0  0  0  0  0  0  0  0
  -10.9969   -1.8893  -22.3582 H   0  0  0  0  0  0  0  0  0  0  0  0
  -10.4407   -2.6247  -23.8823 H   0  0  0  0  0  0  0  0  0  0  0  0
  1  2  1  0
  2  3  1  0
  3  4  1  0
  4  5  1  0
  5  6  2  0
  6  7  1  0
  7  8  2  0
  8  9  1  0
  9 10  2  0
 10 11  1  0
  9 12  1  0
  8 13  1  0
  7 14  1  0
  6 15  1  0
  4 16  1  0
  4 17  1  0
  3 18  2  0
 18 19  1  0
 19 20  1  0
 20 21  2  0
 21 22  1  0
 22 23  2  0
 23 24  1  0
 24 25  2  0
 25 26  1  0
 26 27  2  0
 27 28  1  0
 28 29  2  0
 28 30  1  0
 27 31  1  0
 26 32  1  0
 25 33  1  0
 23 34  1  0
 21 35  1  0
 19 36  1  0
 36 37  2  0
  1 38  1  0
  1 39  1  0
  1 40  1  0
 36  2  1  0
 10  5  1  0
 29 20  1  0
 29 24  1  0
M  END
>  <cnnaffinities>  (52) 
[4.94844, 4.94572, 4.96875, 4.96672]

>  <score>  (52) 
4.94844

>  <index>  (52) 
54

>  <Smiles>  (52) 
C(n1c(C(c2c(c(c(c(c2[H])[H])[H])[H])[H])([H])[H])nn(c2c(nc(c3c(c(c(c(c23)[H])[H])[H])[H])[H])[H])c1=O)([H])([H])[H]

>  <h>  (52) 
<NA>

>  <Training>  (52) 
True

>  <Success>  (52) 
True

>  <enamine_searched>  (52) 
False

>  <enamine_id>  (52) 
nan

$$$$

     RDKit          3D

 61 66  0  0  0  0  0  0  0  0999 V2000
   -9.1551   -4.6277  -25.8184 C   0  0  0  0  0  0  0  0  0  0  0  0
   -9.3308   -4.0093  -24.5676 O   0  0  0  0  0  0  0  0  0  0  0  0
   -8.1100   -3.6516  -23.9731 C   0  0  0  0  0  0  0  0  0  0  0  0
   -8.3852   -2.9250  -22.6676 C   0  0  1  0  0  0  0  0  0  0  0  0
   -7.0749   -2.5126  -21.9849 C   0  0  0  0  0  0  0  0  0  0  0  0
   -7.4330   -1.3156  -21.2564 N   0  0  0  0  0  0  0  0  0  0  0  0
   -6.6309   -0.8206  -20.2055 C   0  0  0  0  0  0  0  0  0  0  0  0
   -6.9300   -1.1189  -18.9023 C   0  0  0  0  0  0  0  0  0  0  0  0
   -6.1445   -0.7890  -17.8504 N   0  0  0  0  0  0  0  0  0  0  0  0
   -5.0789   -0.0662  -18.0991 C   0  0  0  0  0  0  0  0  0  0  0  0
   -4.7016    0.3818  -19.3970 C   0  0  0  0  0  0  0  0  0  0  0  0
   -3.6127    1.2669  -19.6097 C   0  0  0  0  0  0  0  0  0  0  0  0
   -3.2559    1.6228  -20.8810 C   0  0  0  0  0  0  0  0  0  0  0  0
   -3.9498    1.1007  -21.9944 C   0  0  0  0  0  0  0  0  0  0  0  0
   -5.0263    0.2652  -21.8078 C   0  0  0  0  0  0  0  0  0  0  0  0
   -5.4559   -0.0714  -20.4984 C   0  0  0  0  0  0  0  0  0  0  0  0
   -5.5984   -0.0893  -22.6586 H   0  0  0  0  0  0  0  0  0  0  0  0
   -3.6337    1.3875  -22.9937 H   0  0  0  0  0  0  0  0  0  0  0  0
   -2.4231    2.3000  -21.0416 H   0  0  0  0  0  0  0  0  0  0  0  0
   -3.0937    1.6585  -18.7397 H   0  0  0  0  0  0  0  0  0  0  0  0
   -4.4522    0.2119  -17.2512 H   0  0  0  0  0  0  0  0  0  0  0  0
   -7.8440   -1.6597  -18.6682 H   0  0  0  0  0  0  0  0  0  0  0  0
   -8.6706   -0.7971  -21.5663 C   0  0  0  0  0  0  0  0  0  0  0  0
   -9.1843    0.1535  -21.0155 O   0  0  0  0  0  0  0  0  0  0  0  0
   -9.2423   -1.6273  -22.7449 C   0  0  1  0  0  0  0  0  0  0  0  0
   -8.9943   -0.8700  -24.0767 C   0  0  0  0  0  0  0  0  0  0  0  0
   -9.7934    0.3430  -24.1537 N   0  0  0  0  0  0  0  0  0  0  0  0
   -9.1736    1.5686  -24.6386 C   0  0  0  0  0  0  0  0  0  0  0  0
   -8.3063    2.2269  -23.6149 C   0  0  0  0  0  0  0  0  0  0  0  0
   -6.9613    2.2500  -23.4567 C   0  0  0  0  0  0  0  0  0  0  0  0
   -6.6817    3.0650  -22.3782 N   0  0  0  0  0  4  0  0  0  0  0  0
   -7.8388    3.5243  -21.8878 C   0  0  0  0  0  0  0  0  0  0  0  0
   -8.8456    3.0198  -22.6164 N   0  0  0  0  0  0  0  0  0  0  0  0
   -9.8165    2.9960  -22.3073 H   0  0  0  0  0  0  0  0  0  0  0  0
   -7.9625    4.2516  -21.1145 H   0  0  0  0  0  0  0  0  0  0  0  0
   -5.7712    3.1094  -21.9338 H   0  0  0  0  0  0  0  0  0  0  0  0
   -6.1509    1.7297  -23.9553 H   0  0  0  0  0  0  0  0  0  0  0  0
   -8.5943    1.3286  -25.5358 H   0  0  0  0  0  0  0  0  0  0  0  0
   -9.9877    2.2367  -24.9412 H   0  0  0  0  0  0  0  0  0  0  0  0
  -11.1376    0.3198  -23.9121 C   0  0  0  0  0  0  0  0  0  0  0  0
  -11.8879    1.2223  -24.2626 O   0  0  0  0  0  0  0  0  0  0  0  0
  -11.6351   -0.8773  -23.1593 C   0  0  0  0  0  0  0  0  0  0  0  0
  -13.0118   -0.9876  -22.9702 C   0  0  0  0  0  0  0  0  0  0  0  0
  -13.5304   -1.9517  -22.1369 C   0  0  0  0  0  0  0  0  0  0  0  0
  -12.6376   -2.8133  -21.5108 C   0  0  0  0  0  0  0  0  0  0  0  0
  -13.2657   -3.8803  -20.3132 Cl  0  0  0  0  0  0  0  0  0  0  0  0
  -11.2776   -2.7794  -21.7547 C   0  0  0  0  0  0  0  0  0  0  0  0
  -10.7420   -1.7992  -22.5936 C   0  0  0  0  0  0  0  0  0  0  0  0
  -10.6476   -3.4967  -21.2440 H   0  0  0  0  0  0  0  0  0  0  0  0
  -14.5934   -2.0210  -21.9318 H   0  0  0  0  0  0  0  0  0  0  0  0
  -13.6540   -0.2745  -23.4697 H   0  0  0  0  0  0  0  0  0  0  0  0
   -9.2412   -1.5429  -24.9094 H   0  0  0  0  0  0  0  0  0  0  0  0
   -7.9363   -0.5974  -24.1576 H   0  0  0  0  0  0  0  0  0  0  0  0
   -6.2787   -2.3207  -22.7233 H   0  0  0  0  0  0  0  0  0  0  0  0
   -6.7075   -3.2813  -21.2960 H   0  0  0  0  0  0  0  0  0  0  0  0
   -8.9022   -3.6280  -22.0124 H   0  0  0  0  0  0  0  0  0  0  0  0
   -7.5204   -3.0040  -24.6456 H   0  0  0  0  0  0  0  0  0  0  0  0
   -7.4964   -4.5462  -23.7728 H   0  0  0  0  0  0  0  0  0  0  0  0
   -8.5261   -5.5272  -25.7384 H   0  0  0  0  0  0  0  0  0  0  0  0
  -10.1412   -4.9187  -26.1871 H   0  0  0  0  0  0  0  0  0  0  0  0
   -8.6879   -3.9471  -26.5482 H   0  0  0  0  0  0  0  0  0  0  0  0
  1  2  1  0
  2  3  1  0
  3  4  1  0
  4  5  1  0
  5  6  1  0
  6  7  1  0
  7  8  2  0
  8  9  1  0
  9 10  2  0
 10 11  1  0
 11 12  2  0
 12 13  1  0
 13 14  2  0
 14 15  1  0
 15 16  2  0
 15 17  1  0
 14 18  1  0
 13 19  1  0
 12 20  1  0
 10 21  1  0
  8 22  1  0
  6 23  1  0
 23 24  2  0
 23 25  1  0
 25 26  1  6
 26 27  1  0
 27 28  1  0
 28 29  1  0
 29 30  2  0
 30 31  1  0
 31 32  2  0
 32 33  1  0
 33 34  1  0
 32 35  1  0
 31 36  1  0
 30 37  1  0
 28 38  1  0
 28 39  1  0
 27 40  1  0
 40 41  2  0
 40 42  1  0
 42 43  2  0
 43 44  1  0
 44 45  2  0
 45 46  1  0
 45 47  1  0
 47 48  2  0
 47 49  1  0
 44 50  1  0
 43 51  1  0
 26 52  1  0
 26 53  1  0
  5 54  1  0
  5 55  1  0
  4 56  1  1
  3 57  1  0
  3 58  1  0
  1 59  1  0
  1 60  1  0
  1 61  1  0
 25  4  1  0
 33 29  1  0
 48 42  1  0
 16  7  1  0
 48 25  1  0
 16 11  1  0
M  CHG  1  31   1
M  END
>  <cnnaffinities>  (53) 
[6.58389, 6.45098]

>  <score>  (53) 
6.58389

>  <index>  (53) 
55

>  <Smiles>  (53) 
C(OC([C@]1(C(N(c2c(nc(c3c(c(c(c(c23)[H])[H])[H])[H])[H])[H])C(=O)[C@]21C(N(C(c1c([n+](c(n1[H])[H])[H])[H])([H])[H])C(=O)c1c(c(c(Cl)c(c21)[H])[H])[H])([H])[H])([H])[H])[H])([H])[H])([H])([H])[H]

>  <h>  (53) 
<NA>

>  <Training>  (53) 
True

>  <Success>  (53) 
True

>  <enamine_searched>  (53) 
False

>  <enamine_id>  (53) 
nan

$$$$

     RDKit          3D

 57 62  0  0  0  0  0  0  0  0999 V2000
  -10.4147   -0.8890  -23.4470 C   0  0  0  0  0  0  0  0  0  0  0  0
   -9.0180   -1.3640  -23.0415 C   0  0  1  0  0  0  0  0  0  0  0  0
   -8.3889   -0.4899  -21.9373 C   0  0  0  0  0  0  0  0  0  0  0  0
   -7.4302   -1.3802  -21.3007 N   0  0  0  0  0  0  0  0  0  0  0  0
   -6.5742   -0.9920  -20.2422 C   0  0  0  0  0  0  0  0  0  0  0  0
   -6.8374   -1.3748  -18.9511 C   0  0  0  0  0  0  0  0  0  0  0  0
   -6.0966   -0.9932  -17.8819 N   0  0  0  0  0  0  0  0  0  0  0  0
   -5.0658   -0.2120  -18.0969 C   0  0  0  0  0  0  0  0  0  0  0  0
   -4.6807    0.2550  -19.3852 C   0  0  0  0  0  0  0  0  0  0  0  0
   -3.5777    1.1307  -19.5736 C   0  0  0  0  0  0  0  0  0  0  0  0
   -3.2350    1.5475  -20.8315 C   0  0  0  0  0  0  0  0  0  0  0  0
   -3.9546    1.0878  -21.9559 C   0  0  0  0  0  0  0  0  0  0  0  0
   -5.0290    0.2444  -21.7985 C   0  0  0  0  0  0  0  0  0  0  0  0
   -5.4387   -0.1623  -20.5009 C   0  0  0  0  0  0  0  0  0  0  0  0
   -5.5689   -0.1249  -22.6625 H   0  0  0  0  0  0  0  0  0  0  0  0
   -3.6558    1.4083  -22.9500 H   0  0  0  0  0  0  0  0  0  0  0  0
   -2.4016    2.2308  -20.9777 H   0  0  0  0  0  0  0  0  0  0  0  0
   -3.0275    1.4676  -18.6993 H   0  0  0  0  0  0  0  0  0  0  0  0
   -4.4728    0.0807  -17.2282 H   0  0  0  0  0  0  0  0  0  0  0  0
   -7.6843   -2.0219  -18.7295 H   0  0  0  0  0  0  0  0  0  0  0  0
   -7.7403   -2.7094  -21.4878 C   0  0  0  0  0  0  0  0  0  0  0  0
   -7.1761   -3.6221  -20.9199 O   0  0  0  0  0  0  0  0  0  0  0  0
   -8.8896   -2.8383  -22.5060 C   0  0  1  0  0  0  0  0  0  0  0  0
  -10.1255   -3.2931  -21.6972 C   0  0  0  0  0  0  0  0  0  0  0  0
  -11.1878   -3.8926  -22.4973 N   0  0  0  0  0  0  0  0  0  0  0  0
  -12.5605   -3.8424  -22.0119 C   0  0  0  0  0  0  0  0  0  0  0  0
  -13.3600   -2.8018  -22.6997 C   0  0  0  0  0  0  0  0  0  0  0  0
  -13.5402   -1.6835  -22.0055 N   0  0  0  0  0  0  0  0  0  0  0  0
  -14.2589   -0.7573  -22.6283 C   0  0  0  0  0  0  0  0  0  0  0  0
  -14.7420   -0.9355  -23.8994 C   0  0  0  0  0  0  0  0  0  0  0  0
  -14.4916   -2.1414  -24.5285 C   0  0  0  0  0  0  0  0  0  0  0  0
  -13.8035   -3.1008  -23.9302 N   0  0  0  0  0  0  0  0  0  0  0  0
  -14.8371   -2.3647  -25.5350 H   0  0  0  0  0  0  0  0  0  0  0  0
  -15.1958   -0.0889  -24.3493 H   0  0  0  0  0  0  0  0  0  0  0  0
  -14.4570    0.1747  -22.1133 H   0  0  0  0  0  0  0  0  0  0  0  0
  -12.5751   -3.6332  -20.9393 H   0  0  0  0  0  0  0  0  0  0  0  0
  -13.0544   -4.7748  -22.2692 H   0  0  0  0  0  0  0  0  0  0  0  0
  -10.9467   -4.7073  -23.5705 C   0  0  0  0  0  0  0  0  0  0  0  0
  -11.8391   -5.3380  -24.1243 O   0  0  0  0  0  0  0  0  0  0  0  0
   -9.5385   -4.7737  -24.0392 C   0  0  0  0  0  0  0  0  0  0  0  0
   -9.2379   -5.7604  -24.9771 C   0  0  0  0  0  0  0  0  0  0  0  0
   -7.9512   -5.9257  -25.4408 C   0  0  0  0  0  0  0  0  0  0  0  0
   -6.9825   -5.0611  -24.9483 C   0  0  0  0  0  0  0  0  0  0  0  0
   -5.7269   -5.2103  -25.3949 F   0  0  0  0  0  0  0  0  0  0  0  0
   -7.2544   -4.0713  -24.0226 C   0  0  0  0  0  0  0  0  0  0  0  0
   -8.5607   -3.9012  -23.5455 C   0  0  0  0  0  0  0  0  0  0  0  0
   -6.4299   -3.4776  -23.6489 H   0  0  0  0  0  0  0  0  0  0  0  0
   -7.6866   -6.7120  -26.1396 H   0  0  0  0  0  0  0  0  0  0  0  0
  -10.0520   -6.3997  -25.3075 H   0  0  0  0  0  0  0  0  0  0  0  0
   -9.7677   -3.9969  -20.9368 H   0  0  0  0  0  0  0  0  0  0  0  0
  -10.5395   -2.4223  -21.1739 H   0  0  0  0  0  0  0  0  0  0  0  0
   -9.1415   -0.1493  -21.2066 H   0  0  0  0  0  0  0  0  0  0  0  0
   -7.8898    0.3984  -22.3340 H   0  0  0  0  0  0  0  0  0  0  0  0
   -8.3601   -1.3188  -23.9191 H   0  0  0  0  0  0  0  0  0  0  0  0
  -11.0809   -0.7735  -22.5837 H   0  0  0  0  0  0  0  0  0  0  0  0
  -10.3576    0.0854  -23.9451 H   0  0  0  0  0  0  0  0  0  0  0  0
  -10.8950   -1.5959  -24.1304 H   0  0  0  0  0  0  0  0  0  0  0  0
  1  2  1  0
  2  3  1  0
  3  4  1  0
  4  5  1  0
  5  6  2  0
  6  7  1  0
  7  8  2  0
  8  9  1  0
  9 10  2  0
 10 11  1  0
 11 12  2  0
 12 13  1  0
 13 14  2  0
 13 15  1  0
 12 16  1  0
 11 17  1  0
 10 18  1  0
  8 19  1  0
  6 20  1  0
  4 21  1  0
 21 22  2  0
 21 23  1  0
 23 24  1  1
 24 25  1  0
 25 26  1  0
 26 27  1  0
 27 28  2  0
 28 29  1  0
 29 30  2  0
 30 31  1  0
 31 32  2  0
 31 33  1  0
 30 34  1  0
 29 35  1  0
 26 36  1  0
 26 37  1  0
 25 38  1  0
 38 39  2  0
 38 40  1  0
 40 41  2  0
 41 42  1  0
 42 43  2  0
 43 44  1  0
 43 45  1  0
 45 46  2  0
 45 47  1  0
 42 48  1  0
 41 49  1  0
 24 50  1  0
 24 51  1  0
  3 52  1  0
  3 53  1  0
  2 54  1  6
  1 55  1  0
  1 56  1  0
  1 57  1  0
 23  2  1  0
 32 27  1  0
 46 40  1  0
 14  5  1  0
 46 23  1  0
 14  9  1  0
M  END
>  <cnnaffinities>  (54) 
[6.71682]

>  <score>  (54) 
6.71682

>  <index>  (54) 
56

>  <Smiles>  (54) 
C([C@]1(C(N(c2c(nc(c3c(c(c(c(c23)[H])[H])[H])[H])[H])[H])C(=O)[C@]21C(N(C(c1nc(c(c(n1)[H])[H])[H])([H])[H])C(=O)c1c(c(c(F)c(c21)[H])[H])[H])([H])[H])([H])[H])[H])([H])([H])[H]

>  <h>  (54) 
<NA>

>  <Training>  (54) 
True

>  <Success>  (54) 
True

>  <enamine_searched>  (54) 
False

>  <enamine_id>  (54) 
nan

$$$$

     RDKit          3D

 59 63  0  0  0  0  0  0  0  0999 V2000
  -14.5302   -1.2152  -23.5771 C   0  0  0  0  0  0  0  0  0  0  0  0
  -13.7908   -2.3973  -23.1864 N   0  0  0  0  0  0  0  0  0  0  0  0
  -13.4910   -2.6117  -21.8769 C   0  0  0  0  0  0  0  0  0  0  0  0
  -13.9698   -1.9594  -20.9614 O   0  0  0  0  0  0  0  0  0  0  0  0
  -12.5791   -3.8108  -21.6286 C   0  0  0  0  0  0  0  0  0  0  0  0
  -11.2629   -3.7346  -22.2437 N   0  0  0  0  0  0  0  0  0  0  0  0
  -10.1218   -3.2866  -21.4491 C   0  0  0  0  0  0  0  0  0  0  0  0
   -8.8780   -2.9439  -22.3156 C   0  0  2  0  0  0  0  0  0  0  0  0
   -7.6744   -2.7421  -21.3858 C   0  0  0  0  0  0  0  0  0  0  0  0
   -7.0440   -3.6102  -20.8113 O   0  0  0  0  0  0  0  0  0  0  0  0
   -7.3899   -1.3947  -21.2906 N   0  0  0  0  0  0  0  0  0  0  0  0
   -6.5845   -0.9196  -20.2327 C   0  0  0  0  0  0  0  0  0  0  0  0
   -6.8955   -1.2191  -18.9315 C   0  0  0  0  0  0  0  0  0  0  0  0
   -6.1433   -0.8535  -17.8670 N   0  0  0  0  0  0  0  0  0  0  0  0
   -5.0913   -0.1092  -18.1046 C   0  0  0  0  0  0  0  0  0  0  0  0
   -4.7127    0.3451  -19.3997 C   0  0  0  0  0  0  0  0  0  0  0  0
   -3.6245    1.2287  -19.6034 C   0  0  0  0  0  0  0  0  0  0  0  0
   -3.2485    1.5723  -20.8703 C   0  0  0  0  0  0  0  0  0  0  0  0
   -3.9431    1.0657  -21.9937 C   0  0  0  0  0  0  0  0  0  0  0  0
   -5.0349    0.2539  -21.8213 C   0  0  0  0  0  0  0  0  0  0  0  0
   -5.4538   -0.1026  -20.5137 C   0  0  0  0  0  0  0  0  0  0  0  0
   -5.5838   -0.1254  -22.6781 H   0  0  0  0  0  0  0  0  0  0  0  0
   -3.6119    1.3283  -22.9925 H   0  0  0  0  0  0  0  0  0  0  0  0
   -2.4047    2.2368  -21.0245 H   0  0  0  0  0  0  0  0  0  0  0  0
   -3.1196    1.6268  -18.7260 H   0  0  0  0  0  0  0  0  0  0  0  0
   -4.4756    0.1775  -17.2500 H   0  0  0  0  0  0  0  0  0  0  0  0
   -7.8017   -1.7772  -18.7052 H   0  0  0  0  0  0  0  0  0  0  0  0
   -8.3938   -0.5683  -21.9409 C   0  0  0  0  0  0  0  0  0  0  0  0
   -9.0128   -1.5069  -23.0054 C   0  0  0  0  0  0  0  0  0  0  0  0
  -10.4558   -1.0914  -23.2916 C   0  0  0  0  0  0  0  0  0  0  0  0
  -11.0539   -1.0737  -22.3764 H   0  0  0  0  0  0  0  0  0  0  0  0
  -10.9134   -1.8025  -23.9822 H   0  0  0  0  0  0  0  0  0  0  0  0
  -10.4907   -0.0950  -23.7404 H   0  0  0  0  0  0  0  0  0  0  0  0
   -8.2224   -1.4447  -24.3237 C   0  0  0  0  0  0  0  0  0  0  0  0
   -8.6336   -2.1732  -25.0315 H   0  0  0  0  0  0  0  0  0  0  0  0
   -8.3104   -0.4460  -24.7651 H   0  0  0  0  0  0  0  0  0  0  0  0
   -7.1600   -1.6824  -24.1844 H   0  0  0  0  0  0  0  0  0  0  0  0
   -7.9505    0.3352  -22.3757 H   0  0  0  0  0  0  0  0  0  0  0  0
   -9.1561   -0.2428  -21.2119 H   0  0  0  0  0  0  0  0  0  0  0  0
   -8.6307   -4.1114  -23.2427 C   0  0  0  0  0  0  0  0  0  0  0  0
   -7.3392   -4.4708  -23.6598 C   0  0  0  0  0  0  0  0  0  0  0  0
   -7.1758   -5.4715  -24.6024 C   0  0  0  0  0  0  0  0  0  0  0  0
   -5.5863   -5.8125  -25.2166 Cl  0  0  0  0  0  0  0  0  0  0  0  0
   -8.2582   -6.1866  -25.1133 C   0  0  0  0  0  0  0  0  0  0  0  0
   -9.5222   -5.8590  -24.6632 C   0  0  0  0  0  0  0  0  0  0  0  0
   -9.7148   -4.8207  -23.7598 C   0  0  0  0  0  0  0  0  0  0  0  0
  -11.1077   -4.4649  -23.3870 C   0  0  0  0  0  0  0  0  0  0  0  0
  -12.0762   -4.7995  -24.0675 O   0  0  0  0  0  0  0  0  0  0  0  0
  -10.3926   -6.4123  -24.9901 H   0  0  0  0  0  0  0  0  0  0  0  0
   -8.1060   -6.9678  -25.8539 H   0  0  0  0  0  0  0  0  0  0  0  0
   -6.4649   -3.9663  -23.2559 H   0  0  0  0  0  0  0  0  0  0  0  0
  -10.4051   -2.3825  -20.8988 H   0  0  0  0  0  0  0  0  0  0  0  0
   -9.8530   -4.0610  -20.7213 H   0  0  0  0  0  0  0  0  0  0  0  0
  -12.5086   -3.9886  -20.5508 H   0  0  0  0  0  0  0  0  0  0  0  0
  -13.0962   -4.6469  -22.1147 H   0  0  0  0  0  0  0  0  0  0  0  0
  -13.5105   -3.0833  -23.8704 H   0  0  0  0  0  0  0  0  0  0  0  0
  -13.9083   -0.3138  -23.5584 H   0  0  0  0  0  0  0  0  0  0  0  0
  -14.9263   -1.3542  -24.5832 H   0  0  0  0  0  0  0  0  0  0  0  0
  -15.3495   -1.0511  -22.8791 H   0  0  0  0  0  0  0  0  0  0  0  0
  1  2  1  0
  2  3  1  0
  3  4  2  0
  3  5  1  0
  5  6  1  0
  6  7  1  0
  8  7  1  1
  8  9  1  0
  9 10  2  0
  9 11  1  0
 11 12  1  0
 12 13  2  0
 13 14  1  0
 14 15  2  0
 15 16  1  0
 16 17  2  0
 17 18  1  0
 18 19  2  0
 19 20  1  0
 20 21  2  0
 20 22  1  0
 19 23  1  0
 18 24  1  0
 17 25  1  0
 15 26  1  0
 13 27  1  0
 11 28  1  0
 28 29  1  0
 29 30  1  0
 30 31  1  0
 30 32  1  0
 30 33  1  0
 29 34  1  0
 34 35  1  0
 34 36  1  0
 34 37  1  0
 28 38  1  0
 28 39  1  0
  8 40  1  0
 40 41  2  0
 41 42  1  0
 42 43  1  0
 42 44  2  0
 44 45  1  0
 45 46  2  0
 46 47  1  0
 47 48  2  0
 45 49  1  0
 44 50  1  0
 41 51  1  0
  7 52  1  0
  7 53  1  0
  5 54  1  0
  5 55  1  0
  2 56  1  0
  1 57  1  0
  1 58  1  0
  1 59  1  0
 47  6  1  0
 29  8  1  0
 46 40  1  0
 21 12  1  0
 21 16  1  0
M  END
>  <cnnaffinities>  (55) 
[6.69195, 5.53752]

>  <score>  (55) 
6.69195

>  <index>  (55) 
57

>  <Smiles>  (55) 
C(N(C(=O)C(N1C([C@@]2(C(=O)N(c3c(nc(c4c(c(c(c(c34)[H])[H])[H])[H])[H])[H])C(C2(C([H])([H])[H])C([H])([H])[H])([H])[H])c2c(c(Cl)c(c(c2C1=O)[H])[H])[H])([H])[H])([H])[H])[H])([H])([H])[H]

>  <h>  (55) 
<NA>

>  <Training>  (55) 
True

>  <Success>  (55) 
True

>  <enamine_searched>  (55) 
False

>  <enamine_id>  (55) 
nan

$$$$

     RDKit          3D

 42 45  0  0  0  0  0  0  0  0999 V2000
   -7.2305   -5.3426  -21.6861 C   0  0  0  0  0  0  0  0  0  0  0  0
   -8.0085   -4.3538  -22.4175 N   0  0  0  0  0  0  0  0  0  0  0  0
   -9.2780   -3.7980  -21.9523 C   0  0  0  0  0  0  0  0  0  0  0  0
   -9.4392   -2.2951  -22.2608 C   0  0  1  0  0  0  0  0  0  0  0  0
   -8.6907   -1.2724  -21.4004 C   0  0  0  0  0  0  0  0  0  0  0  0
   -9.2740   -0.3179  -20.9199 O   0  0  0  0  0  0  0  0  0  0  0  0
   -7.3388   -1.4704  -21.2512 N   0  0  0  0  0  0  0  0  0  0  0  0
   -6.5948   -0.8733  -20.2073 C   0  0  0  0  0  0  0  0  0  0  0  0
   -6.9291   -1.1068  -18.8971 C   0  0  0  0  0  0  0  0  0  0  0  0
   -6.1758   -0.7294  -17.8346 N   0  0  0  0  0  0  0  0  0  0  0  0
   -5.1051   -0.0139  -18.0934 C   0  0  0  0  0  0  0  0  0  0  0  0
   -4.7125    0.4074  -19.3976 C   0  0  0  0  0  0  0  0  0  0  0  0
   -3.6192    1.2848  -19.6210 C   0  0  0  0  0  0  0  0  0  0  0  0
   -3.2511    1.6207  -20.8958 C   0  0  0  0  0  0  0  0  0  0  0  0
   -3.9632    1.1138  -22.0059 C   0  0  0  0  0  0  0  0  0  0  0  0
   -5.0502    0.2971  -21.8188 C   0  0  0  0  0  0  0  0  0  0  0  0
   -5.4543   -0.0629  -20.5044 C   0  0  0  0  0  0  0  0  0  0  0  0
   -5.6138   -0.0570  -22.6799 H   0  0  0  0  0  0  0  0  0  0  0  0
   -3.6427    1.3777  -23.0100 H   0  0  0  0  0  0  0  0  0  0  0  0
   -2.4002    2.2730  -21.0663 H   0  0  0  0  0  0  0  0  0  0  0  0
   -3.1062    1.7003  -18.7586 H   0  0  0  0  0  0  0  0  0  0  0  0
   -4.4832    0.2755  -17.2472 H   0  0  0  0  0  0  0  0  0  0  0  0
   -7.8328   -1.6728  -18.6699 H   0  0  0  0  0  0  0  0  0  0  0  0
   -6.8365   -2.0362  -21.9278 H   0  0  0  0  0  0  0  0  0  0  0  0
   -9.0578   -2.0505  -23.6887 C   0  0  0  0  0  0  0  0  0  0  0  0
   -9.5381   -0.9144  -24.3345 C   0  0  0  0  0  0  0  0  0  0  0  0
   -9.1064   -0.6348  -25.6211 C   0  0  0  0  0  0  0  0  0  0  0  0
   -9.7123    0.7781  -26.4401 Cl  0  0  0  0  0  0  0  0  0  0  0  0
   -8.1713   -1.4450  -26.2660 C   0  0  0  0  0  0  0  0  0  0  0  0
   -7.6786   -2.5582  -25.6123 C   0  0  0  0  0  0  0  0  0  0  0  0
   -8.1258   -2.8587  -24.3291 C   0  0  0  0  0  0  0  0  0  0  0  0
   -7.5050   -4.0333  -23.6477 C   0  0  0  0  0  0  0  0  0  0  0  0
   -6.5607   -4.6332  -24.1432 O   0  0  0  0  0  0  0  0  0  0  0  0
   -6.9309   -3.2130  -26.0485 H   0  0  0  0  0  0  0  0  0  0  0  0
   -7.8181   -1.1854  -27.2557 H   0  0  0  0  0  0  0  0  0  0  0  0
  -10.2380   -0.2554  -23.8307 H   0  0  0  0  0  0  0  0  0  0  0  0
  -10.4821   -2.0092  -22.0905 H   0  0  0  0  0  0  0  0  0  0  0  0
  -10.1065   -4.2977  -22.4796 H   0  0  0  0  0  0  0  0  0  0  0  0
   -9.3969   -3.9739  -20.8814 H   0  0  0  0  0  0  0  0  0  0  0  0
   -7.8217   -5.8599  -20.9352 H   0  0  0  0  0  0  0  0  0  0  0  0
   -6.8515   -6.0706  -22.4040 H   0  0  0  0  0  0  0  0  0  0  0  0
   -6.3616   -4.8806  -21.2065 H   0  0  0  0  0  0  0  0  0  0  0  0
  1  2  1  0
  2  3  1  0
  3  4  1  0
  4  5  1  0
  5  6  2  0
  5  7  1  0
  7  8  1  0
  8  9  2  0
  9 10  1  0
 10 11  2  0
 11 12  1  0
 12 13  2  0
 13 14  1  0
 14 15  2  0
 15 16  1  0
 16 17  2  0
 16 18  1  0
 15 19  1  0
 14 20  1  0
 13 21  1  0
 11 22  1  0
  9 23  1  0
  7 24  1  0
  4 25  1  0
 25 26  2  0
 26 27  1  0
 27 28  1  0
 27 29  2  0
 29 30  1  0
 30 31  2  0
 31 32  1  0
 32 33  2  0
 30 34  1  0
 29 35  1  0
 26 36  1  0
  4 37  1  6
  3 38  1  0
  3 39  1  0
  1 40  1  0
  1 41  1  0
  1 42  1  0
 32  2  1  0
 17  8  1  0
 31 25  1  0
 17 12  1  0
M  END
>  <cnnaffinities>  (56) 
[5.21295, 5.42205, 5.25933, 5.27375]

>  <score>  (56) 
5.21295

>  <index>  (56) 
58

>  <Smiles>  (56) 
C(N1C([C@@](C(=O)N(c2c(nc(c3c(c(c(c(c23)[H])[H])[H])[H])[H])[H])[H])(c2c(c(Cl)c(c(c2C1=O)[H])[H])[H])[H])([H])[H])([H])([H])[H]

>  <h>  (56) 
<NA>

>  <Training>  (56) 
True

>  <Success>  (56) 
True

>  <enamine_searched>  (56) 
False

>  <enamine_id>  (56) 
nan

$$$$

     RDKit          3D

 60 65  0  0  0  0  0  0  0  0999 V2000
   -7.4075    3.3796  -21.8175 C   0  0  0  0  0  0  0  0  0  0  0  0
   -8.2645    2.8913  -22.8874 N   0  0  0  0  0  0  0  0  0  0  0  0
   -7.6817    2.2027  -23.9073 C   0  0  0  0  0  0  0  0  0  0  0  0
   -6.4705    2.0906  -24.0280 O   0  0  0  0  0  0  0  0  0  0  0  0
   -8.6525    1.5820  -24.9154 C   0  0  0  0  0  0  0  0  0  0  0  0
   -9.3738    0.4658  -24.3460 N   0  0  0  0  0  0  0  0  0  0  0  0
   -8.6652   -0.7893  -24.1868 C   0  0  0  0  0  0  0  0  0  0  0  0
   -9.0682   -1.5165  -22.8881 C   0  0  2  0  0  0  0  0  0  0  0  0
   -8.5367   -0.7404  -21.6642 C   0  0  0  0  0  0  0  0  0  0  0  0
   -9.0074    0.2568  -21.1548 O   0  0  0  0  0  0  0  0  0  0  0  0
   -7.4001   -1.3735  -21.2337 N   0  0  0  0  0  0  0  0  0  0  0  0
   -6.6074   -0.8412  -20.1993 C   0  0  0  0  0  0  0  0  0  0  0  0
   -6.9273   -1.1183  -18.8997 C   0  0  0  0  0  0  0  0  0  0  0  0
   -6.1584   -0.7744  -17.8434 N   0  0  0  0  0  0  0  0  0  0  0  0
   -5.0915   -0.0529  -18.0938 C   0  0  0  0  0  0  0  0  0  0  0  0
   -4.7111    0.3988  -19.3906 C   0  0  0  0  0  0  0  0  0  0  0  0
   -3.6153    1.2741  -19.6116 C   0  0  0  0  0  0  0  0  0  0  0  0
   -3.2544    1.6240  -20.8826 C   0  0  0  0  0  0  0  0  0  0  0  0
   -3.9748    1.1375  -21.9968 C   0  0  0  0  0  0  0  0  0  0  0  0
   -5.0675    0.3289  -21.8089 C   0  0  0  0  0  0  0  0  0  0  0  0
   -5.4675   -0.0436  -20.4973 C   0  0  0  0  0  0  0  0  0  0  0  0
   -5.6383   -0.0191  -22.6673 H   0  0  0  0  0  0  0  0  0  0  0  0
   -3.6703    1.4043  -23.0032 H   0  0  0  0  0  0  0  0  0  0  0  0
   -2.4014    2.2748  -21.0484 H   0  0  0  0  0  0  0  0  0  0  0  0
   -3.0886    1.6715  -18.7484 H   0  0  0  0  0  0  0  0  0  0  0  0
   -4.4601    0.2165  -17.2479 H   0  0  0  0  0  0  0  0  0  0  0  0
   -7.8530   -1.6461  -18.6855 H   0  0  0  0  0  0  0  0  0  0  0  0
   -7.0431   -2.5650  -21.9686 C   0  0  0  0  0  0  0  0  0  0  0  0
   -8.3286   -2.8807  -22.7477 C   0  0  2  0  0  0  0  0  0  0  0  0
   -8.1105   -3.7681  -23.9939 C   0  0  0  0  0  0  0  0  0  0  0  0
   -6.9003   -3.4726  -24.8426 C   0  0  0  0  0  0  0  0  0  0  0  0
   -5.6700   -3.8736  -24.5413 N   0  0  0  0  0  0  0  0  0  0  0  0
   -4.9001   -3.4135  -25.5266 N   0  0  0  0  0  0  0  0  0  0  0  0
   -5.6396   -2.7713  -26.3894 N   0  0  0  0  0  2  0  0  0  0  0  0
   -6.9091   -2.8046  -25.9893 N   0  0  0  0  0  0  0  0  0  0  0  0
   -7.9989   -4.8042  -23.6617 H   0  0  0  0  0  0  0  0  0  0  0  0
   -8.9976   -3.7344  -24.6311 H   0  0  0  0  0  0  0  0  0  0  0  0
   -8.9608   -3.4732  -22.0851 H   0  0  0  0  0  0  0  0  0  0  0  0
   -6.7743   -3.3675  -21.2754 H   0  0  0  0  0  0  0  0  0  0  0  0
   -6.1879   -2.3997  -22.6381 H   0  0  0  0  0  0  0  0  0  0  0  0
  -10.5793   -1.5652  -22.8343 C   0  0  0  0  0  0  0  0  0  0  0  0
  -11.2377   -2.4841  -22.0131 C   0  0  0  0  0  0  0  0  0  0  0  0
  -12.6173   -2.4645  -21.9269 C   0  0  0  0  0  0  0  0  0  0  0  0
  -13.4030   -3.5762  -20.8489 Cl  0  0  0  0  0  0  0  0  0  0  0  0
  -13.3963   -1.5613  -22.6490 C   0  0  0  0  0  0  0  0  0  0  0  0
  -12.7478   -0.6245  -23.4238 C   0  0  0  0  0  0  0  0  0  0  0  0
  -11.3585   -0.6016  -23.4886 C   0  0  0  0  0  0  0  0  0  0  0  0
  -10.7313    0.5336  -24.2335 C   0  0  0  0  0  0  0  0  0  0  0  0
  -11.3863    1.4638  -24.6788 O   0  0  0  0  0  0  0  0  0  0  0  0
  -13.2888    0.1296  -23.9802 H   0  0  0  0  0  0  0  0  0  0  0  0
  -14.4787   -1.5905  -22.5701 H   0  0  0  0  0  0  0  0  0  0  0  0
  -10.6865   -3.2069  -21.4199 H   0  0  0  0  0  0  0  0  0  0  0  0
   -8.8768   -1.4504  -25.0353 H   0  0  0  0  0  0  0  0  0  0  0  0
   -7.5896   -0.5882  -24.1906 H   0  0  0  0  0  0  0  0  0  0  0  0
   -9.4029    2.3095  -25.2436 H   0  0  0  0  0  0  0  0  0  0  0  0
   -8.0576    1.2480  -25.7692 H   0  0  0  0  0  0  0  0  0  0  0  0
   -9.2318    2.6949  -22.6527 H   0  0  0  0  0  0  0  0  0  0  0  0
   -6.6327    4.0223  -22.2430 H   0  0  0  0  0  0  0  0  0  0  0  0
   -7.9899    3.9918  -21.1272 H   0  0  0  0  0  0  0  0  0  0  0  0
   -6.9120    2.5508  -21.2807 H   0  0  0  0  0  0  0  0  0  0  0  0
  1  2  1  0
  2  3  1  0
  3  4  2  0
  3  5  1  0
  5  6  1  0
  6  7  1  0
  8  7  1  6
  8  9  1  0
  9 10  2  0
  9 11  1  0
 11 12  1  0
 12 13  2  0
 13 14  1  0
 14 15  2  0
 15 16  1  0
 16 17  2  0
 17 18  1  0
 18 19  2  0
 19 20  1  0
 20 21  2  0
 20 22  1  0
 19 23  1  0
 18 24  1  0
 17 25  1  0
 15 26  1  0
 13 27  1  0
 11 28  1  0
 28 29  1  0
 29 30  1  0
 30 31  1  0
 31 32  1  0
 32 33  2  0
 33 34  1  0
 34 35  1  0
 30 36  1  0
 30 37  1  0
 29 38  1  1
 28 39  1  0
 28 40  1  0
  8 41  1  0
 41 42  2  0
 42 43  1  0
 43 44  1  0
 43 45  2  0
 45 46  1  0
 46 47  2  0
 47 48  1  0
 48 49  2  0
 46 50  1  0
 45 51  1  0
 42 52  1  0
  7 53  1  0
  7 54  1  0
  5 55  1  0
  5 56  1  0
  2 57  1  0
  1 58  1  0
  1 59  1  0
  1 60  1  0
 48  6  1  0
 29  8  1  0
 35 31  2  0
 47 41  1  0
 21 12  1  0
 21 16  1  0
M  CHG  1  34  -1
M  END
>  <cnnaffinities>  (57) 
[6.11429, 6.54162, 6.09158, 6.54945]

>  <score>  (57) 
6.11429

>  <index>  (57) 
59

>  <Smiles>  (57) 
C(N(C(=O)C(N1C([C@@]2(C(=O)N(c3c(nc(c4c(c(c(c(c34)[H])[H])[H])[H])[H])[H])C([C@@]2(C(c2nn[n-]n2)([H])[H])[H])([H])[H])c2c(c(Cl)c(c(c2C1=O)[H])[H])[H])([H])[H])([H])[H])[H])([H])([H])[H]

>  <h>  (57) 
<NA>

>  <Training>  (57) 
True

>  <Success>  (57) 
True

>  <enamine_searched>  (57) 
False

>  <enamine_id>  (57) 
nan

$$$$

     RDKit          3D

 62 67  0  0  0  0  0  0  0  0999 V2000
  -11.3133    4.3002  -25.2279 C   0  0  0  0  0  0  0  0  0  0  0  0
   -9.8249    4.1619  -25.5241 C   0  0  0  0  0  0  0  0  0  0  0  0
   -9.0620    3.5821  -24.4280 N   0  0  0  0  0  0  0  0  0  0  0  0
   -8.4854    4.4135  -23.5459 N   0  0  0  0  0  0  0  0  0  0  0  0
   -7.9021    3.6247  -22.6548 C   0  0  0  0  0  0  0  0  0  0  0  0
   -8.1086    2.2651  -22.9601 C   0  0  0  0  0  0  0  0  0  0  0  0
   -8.8693    2.2706  -24.1080 C   0  0  0  0  0  0  0  0  0  0  0  0
   -9.3690    1.1093  -24.9253 C   0  0  0  0  0  0  0  0  0  0  0  0
   -9.8351    0.0142  -24.1020 N   0  0  0  0  0  0  0  0  0  0  0  0
   -9.0209   -1.1806  -23.9819 C   0  0  0  0  0  0  0  0  0  0  0  0
   -9.2212   -1.9011  -22.6301 C   0  0  2  0  0  0  0  0  0  0  0  0
   -8.6687   -1.0250  -21.4866 C   0  0  0  0  0  0  0  0  0  0  0  0
   -9.2468   -0.1191  -20.9175 O   0  0  0  0  0  0  0  0  0  0  0  0
   -7.3803   -1.4184  -21.2289 N   0  0  0  0  0  0  0  0  0  0  0  0
   -6.6160   -0.8433  -20.1888 C   0  0  0  0  0  0  0  0  0  0  0  0
   -6.9276   -1.1039  -18.8791 C   0  0  0  0  0  0  0  0  0  0  0  0
   -6.1632   -0.7207  -17.8268 N   0  0  0  0  0  0  0  0  0  0  0  0
   -5.1014    0.0047  -18.0860 C   0  0  0  0  0  0  0  0  0  0  0  0
   -4.7202    0.4300  -19.3933 C   0  0  0  0  0  0  0  0  0  0  0  0
   -3.6212    1.3036  -19.6215 C   0  0  0  0  0  0  0  0  0  0  0  0
   -3.2567    1.6385  -20.8958 C   0  0  0  0  0  0  0  0  0  0  0  0
   -3.9750    1.1337  -22.0022 C   0  0  0  0  0  0  0  0  0  0  0  0
   -5.0673    0.3213  -21.8059 C   0  0  0  0  0  0  0  0  0  0  0  0
   -5.4727   -0.0405  -20.4922 C   0  0  0  0  0  0  0  0  0  0  0  0
   -5.6166   -0.0499  -22.6655 H   0  0  0  0  0  0  0  0  0  0  0  0
   -3.6589    1.3920  -23.0088 H   0  0  0  0  0  0  0  0  0  0  0  0
   -2.4053    2.2907  -21.0719 H   0  0  0  0  0  0  0  0  0  0  0  0
   -3.0935    1.7139  -18.7631 H   0  0  0  0  0  0  0  0  0  0  0  0
   -4.4745    0.3020  -17.2419 H   0  0  0  0  0  0  0  0  0  0  0  0
   -7.8320   -1.6623  -18.6429 H   0  0  0  0  0  0  0  0  0  0  0  0
   -6.9754   -2.6079  -21.9515 C   0  0  0  0  0  0  0  0  0  0  0  0
   -8.3032   -3.1531  -22.5124 C   0  0  2  0  0  0  0  0  0  0  0  0
   -8.1086   -3.9841  -23.7776 C   0  0  0  0  0  0  0  0  0  0  0  0
   -7.5656   -3.4106  -24.5393 H   0  0  0  0  0  0  0  0  0  0  0  0
   -7.5137   -4.8787  -23.5669 H   0  0  0  0  0  0  0  0  0  0  0  0
   -9.0623   -4.3064  -24.2111 H   0  0  0  0  0  0  0  0  0  0  0  0
   -8.7316   -3.7865  -21.7285 H   0  0  0  0  0  0  0  0  0  0  0  0
   -6.4765   -3.3129  -21.2783 H   0  0  0  0  0  0  0  0  0  0  0  0
   -6.2695   -2.3577  -22.7561 H   0  0  0  0  0  0  0  0  0  0  0  0
  -10.7106   -2.1075  -22.4492 C   0  0  0  0  0  0  0  0  0  0  0  0
  -11.2421   -3.1336  -21.6621 C   0  0  0  0  0  0  0  0  0  0  0  0
  -12.5921   -3.1258  -21.3545 C   0  0  0  0  0  0  0  0  0  0  0  0
  -13.0479   -3.9752  -20.4270 F   0  0  0  0  0  0  0  0  0  0  0  0
  -13.5063   -2.2361  -21.9182 C   0  0  0  0  0  0  0  0  0  0  0  0
  -12.9809   -1.2242  -22.7020 C   0  0  0  0  0  0  0  0  0  0  0  0
  -11.6104   -1.1442  -22.9370 C   0  0  0  0  0  0  0  0  0  0  0  0
  -11.1343    0.0533  -23.6906 C   0  0  0  0  0  0  0  0  0  0  0  0
  -11.8783    1.0033  -23.9215 O   0  0  0  0  0  0  0  0  0  0  0  0
  -13.6047   -0.4463  -23.1272 H   0  0  0  0  0  0  0  0  0  0  0  0
  -14.5729   -2.3362  -21.7281 H   0  0  0  0  0  0  0  0  0  0  0  0
  -10.6279   -3.9313  -21.2538 H   0  0  0  0  0  0  0  0  0  0  0  0
   -9.2784   -1.8853  -24.7811 H   0  0  0  0  0  0  0  0  0  0  0  0
   -7.9703   -0.8968  -24.0977 H   0  0  0  0  0  0  0  0  0  0  0  0
  -10.2066    1.4174  -25.5582 H   0  0  0  0  0  0  0  0  0  0  0  0
   -8.5718    0.7217  -25.5770 H   0  0  0  0  0  0  0  0  0  0  0  0
   -7.7814    1.3856  -22.4205 H   0  0  0  0  0  0  0  0  0  0  0  0
   -7.3666    4.0798  -21.8289 H   0  0  0  0  0  0  0  0  0  0  0  0
   -9.3767    5.1422  -25.6945 H   0  0  0  0  0  0  0  0  0  0  0  0
   -9.6603    3.5602  -26.4245 H   0  0  0  0  0  0  0  0  0  0  0  0
  -11.7675    3.3234  -25.0344 H   0  0  0  0  0  0  0  0  0  0  0  0
  -11.4816    4.9411  -24.3577 H   0  0  0  0  0  0  0  0  0  0  0  0
  -11.8131    4.7567  -26.0881 H   0  0  0  0  0  0  0  0  0  0  0  0
  1  2  1  0
  2  3  1  0
  3  4  1  0
  4  5  2  0
  5  6  1  0
  6  7  2  0
  7  8  1  0
  8  9  1  0
  9 10  1  0
 11 10  1  6
 11 12  1  0
 12 13  2  0
 12 14  1  0
 14 15  1  0
 15 16  2  0
 16 17  1  0
 17 18  2  0
 18 19  1  0
 19 20  2  0
 20 21  1  0
 21 22  2  0
 22 23  1  0
 23 24  2  0
 23 25  1  0
 22 26  1  0
 21 27  1  0
 20 28  1  0
 18 29  1  0
 16 30  1  0
 14 31  1  0
 31 32  1  0
 32 33  1  0
 33 34  1  0
 33 35  1  0
 33 36  1  0
 32 37  1  1
 31 38  1  0
 31 39  1  0
 11 40  1  0
 40 41  2  0
 41 42  1  0
 42 43  1  0
 42 44  2  0
 44 45  1  0
 45 46  2  0
 46 47  1  0
 47 48  2  0
 45 49  1  0
 44 50  1  0
 41 51  1  0
 10 52  1  0
 10 53  1  0
  8 54  1  0
  8 55  1  0
  6 56  1  0
  5 57  1  0
  2 58  1  0
  2 59  1  0
  1 60  1  0
  1 61  1  0
  1 62  1  0
  7  3  1  0
 47  9  1  0
 32 11  1  0
 46 40  1  0
 24 15  1  0
 24 19  1  0
M  END
>  <cnnaffinities>  (58) 
[6.91705, 5.77672]

>  <score>  (58) 
6.91705

>  <index>  (58) 
60

>  <Smiles>  (58) 
C(C(n1nc(c(c1C(N1C([C@@]2(C(=O)N(c3c(nc(c4c(c(c(c(c34)[H])[H])[H])[H])[H])[H])C([C@@]2(C([H])([H])[H])[H])([H])[H])c2c(c(F)c(c(c2C1=O)[H])[H])[H])([H])[H])([H])[H])[H])[H])([H])[H])([H])([H])[H]

>  <h>  (58) 
<NA>

>  <Training>  (58) 
True

>  <Success>  (58) 
True

>  <enamine_searched>  (58) 
False

>  <enamine_id>  (58) 
nan

$$$$

     RDKit          3D

 44 47  0  0  0  0  0  0  0  0999 V2000
   -8.4136    0.7692  -21.5840 O   0  0  0  0  0  0  0  0  0  0  0  0
   -8.5403   -0.4259  -21.7868 C   0  0  0  0  0  0  0  0  0  0  0  0
   -7.4847   -1.4199  -21.2954 C   0  0  0  0  0  0  0  0  0  0  0  0
   -6.6149   -0.8535  -20.2080 C   0  0  0  0  0  0  0  0  0  0  0  0
   -6.9094   -1.1135  -18.8976 C   0  0  0  0  0  0  0  0  0  0  0  0
   -6.1536   -0.7530  -17.8281 N   0  0  0  0  0  0  0  0  0  0  0  0
   -5.0887   -0.0226  -18.0835 C   0  0  0  0  0  0  0  0  0  0  0  0
   -4.7170    0.4127  -19.3859 C   0  0  0  0  0  0  0  0  0  0  0  0
   -3.6176    1.2850  -19.6022 C   0  0  0  0  0  0  0  0  0  0  0  0
   -3.2450    1.6256  -20.8760 C   0  0  0  0  0  0  0  0  0  0  0  0
   -3.9627    1.1248  -21.9845 C   0  0  0  0  0  0  0  0  0  0  0  0
   -5.0612    0.3227  -21.7972 C   0  0  0  0  0  0  0  0  0  0  0  0
   -5.4777   -0.0396  -20.4876 C   0  0  0  0  0  0  0  0  0  0  0  0
   -5.6212   -0.0311  -22.6560 H   0  0  0  0  0  0  0  0  0  0  0  0
   -3.6320    1.3772  -22.9890 H   0  0  0  0  0  0  0  0  0  0  0  0
   -2.3925    2.2771  -21.0436 H   0  0  0  0  0  0  0  0  0  0  0  0
   -3.0965    1.6942  -18.7395 H   0  0  0  0  0  0  0  0  0  0  0  0
   -4.4603    0.2768  -17.2440 H   0  0  0  0  0  0  0  0  0  0  0  0
   -7.8220   -1.6674  -18.6640 H   0  0  0  0  0  0  0  0  0  0  0  0
   -6.8852   -1.7673  -22.1478 H   0  0  0  0  0  0  0  0  0  0  0  0
   -8.0105   -2.2974  -20.9020 H   0  0  0  0  0  0  0  0  0  0  0  0
   -9.6346   -0.9470  -22.4183 N   0  0  0  0  0  0  0  0  0  0  0  0
   -9.7737   -2.3326  -22.8728 C   0  0  0  0  0  0  0  0  0  0  0  0
  -10.8257   -2.4382  -23.9829 C   0  0  0  0  0  0  0  0  0  0  0  0
  -12.2159   -1.9471  -23.5596 C   0  0  0  0  0  0  0  0  0  0  0  0
  -13.2084   -1.6919  -24.7278 C   0  0  0  0  0  0  0  0  0  0  0  0
  -14.1427   -2.8120  -24.2143 C   0  0  0  0  0  0  0  0  0  0  0  0
  -13.1672   -3.0615  -23.0435 C   0  0  0  0  0  0  0  0  0  0  0  0
  -13.5828   -2.8422  -22.0557 H   0  0  0  0  0  0  0  0  0  0  0  0
  -12.7055   -4.0531  -23.0139 H   0  0  0  0  0  0  0  0  0  0  0  0
  -15.1402   -2.4814  -23.9120 H   0  0  0  0  0  0  0  0  0  0  0  0
  -14.2671   -3.6574  -24.8977 H   0  0  0  0  0  0  0  0  0  0  0  0
  -13.6433   -0.6875  -24.7173 H   0  0  0  0  0  0  0  0  0  0  0  0
  -12.7869   -1.8696  -25.7195 H   0  0  0  0  0  0  0  0  0  0  0  0
  -12.0576   -0.7850  -22.5713 C   0  0  0  0  0  0  0  0  0  0  0  0
  -10.7388   -0.0359  -22.6973 C   0  0  0  0  0  0  0  0  0  0  0  0
  -10.6649    0.7796  -21.9749 H   0  0  0  0  0  0  0  0  0  0  0  0
  -10.6040    0.4058  -23.6913 H   0  0  0  0  0  0  0  0  0  0  0  0
  -12.9095   -0.0953  -22.6118 H   0  0  0  0  0  0  0  0  0  0  0  0
  -12.0487   -1.2295  -21.5788 H   0  0  0  0  0  0  0  0  0  0  0  0
  -10.4829   -1.8125  -24.8161 H   0  0  0  0  0  0  0  0  0  0  0  0
  -10.8758   -3.4702  -24.3557 H   0  0  0  0  0  0  0  0  0  0  0  0
   -8.8083   -2.6713  -23.2660 H   0  0  0  0  0  0  0  0  0  0  0  0
  -10.0306   -2.9933  -22.0315 H   0  0  0  0  0  0  0  0  0  0  0  0
  1  2  2  0
  2  3  1  0
  3  4  1  0
  4  5  2  0
  5  6  1  0
  6  7  2  0
  7  8  1  0
  8  9  2  0
  9 10  1  0
 10 11  2  0
 11 12  1  0
 12 13  2  0
 12 14  1  0
 11 15  1  0
 10 16  1  0
  9 17  1  0
  7 18  1  0
  5 19  1  0
  3 20  1  0
  3 21  1  0
  2 22  1  0
 22 23  1  0
 23 24  1  0
 24 25  1  0
 25 26  1  0
 26 27  1  0
 27 28  1  0
 28 29  1  0
 28 30  1  0
 27 31  1  0
 27 32  1  0
 26 33  1  0
 26 34  1  0
 25 35  1  0
 35 36  1  0
 36 37  1  0
 36 38  1  0
 35 39  1  0
 35 40  1  0
 24 41  1  0
 24 42  1  0
 23 43  1  0
 23 44  1  0
 13  4  1  0
 36 22  1  0
 13  8  1  0
 28 25  1  0
M  END
>  <cnnaffinities>  (59) 
[5.16575, 5.16572, 5.17115]

>  <score>  (59) 
5.16575

>  <index>  (59) 
61

>  <Smiles>  (59) 
O=C(C(c1c(nc(c2c(c(c(c(c12)[H])[H])[H])[H])[H])[H])([H])[H])N1C(C(C2(C(C(C2([H])[H])([H])[H])([H])[H])C(C1([H])[H])([H])[H])([H])[H])([H])[H]

>  <h>  (59) 
<NA>

>  <Training>  (59) 
True

>  <Success>  (59) 
True

>  <enamine_searched>  (59) 
False

>  <enamine_id>  (59) 
nan

$$$$

     RDKit          3D

 44 47  0  0  0  0  0  0  0  0999 V2000
   -8.4883    0.7390  -21.4888 O   0  0  0  0  0  0  0  0  0  0  0  0
   -8.5317   -0.4413  -21.7972 C   0  0  0  0  0  0  0  0  0  0  0  0
   -7.4809   -1.4332  -21.3040 C   0  0  0  0  0  0  0  0  0  0  0  0
   -6.6161   -0.8641  -20.2223 C   0  0  0  0  0  0  0  0  0  0  0  0
   -6.9172   -1.1270  -18.9143 C   0  0  0  0  0  0  0  0  0  0  0  0
   -6.1560   -0.7814  -17.8457 N   0  0  0  0  0  0  0  0  0  0  0  0
   -5.0895   -0.0569  -18.0929 C   0  0  0  0  0  0  0  0  0  0  0  0
   -4.7219    0.3953  -19.3917 C   0  0  0  0  0  0  0  0  0  0  0  0
   -3.6240    1.2714  -19.6028 C   0  0  0  0  0  0  0  0  0  0  0  0
   -3.2527    1.6189  -20.8712 C   0  0  0  0  0  0  0  0  0  0  0  0
   -3.9680    1.1232  -21.9851 C   0  0  0  0  0  0  0  0  0  0  0  0
   -5.0684    0.3220  -21.8036 C   0  0  0  0  0  0  0  0  0  0  0  0
   -5.4817   -0.0469  -20.4959 C   0  0  0  0  0  0  0  0  0  0  0  0
   -5.6286   -0.0320  -22.6627 H   0  0  0  0  0  0  0  0  0  0  0  0
   -3.6362    1.3786  -22.9873 H   0  0  0  0  0  0  0  0  0  0  0  0
   -2.3996    2.2725  -21.0376 H   0  0  0  0  0  0  0  0  0  0  0  0
   -3.1035    1.6761  -18.7371 H   0  0  0  0  0  0  0  0  0  0  0  0
   -4.4509    0.2178  -17.2512 H   0  0  0  0  0  0  0  0  0  0  0  0
   -7.8353   -1.6709  -18.6847 H   0  0  0  0  0  0  0  0  0  0  0  0
   -8.0248   -2.2984  -20.9044 H   0  0  0  0  0  0  0  0  0  0  0  0
   -6.8845   -1.8003  -22.1518 H   0  0  0  0  0  0  0  0  0  0  0  0
   -9.5441   -0.9522  -22.5596 N   0  0  0  0  0  0  0  0  0  0  0  0
   -9.5642   -2.2392  -23.2431 C   0  0  0  0  0  0  0  0  0  0  0  0
  -10.8499   -3.0151  -22.9397 C   0  0  0  0  0  0  0  0  0  0  0  0
  -12.0723   -2.0794  -22.8209 C   0  0  0  0  0  0  0  0  0  0  0  0
  -13.3165   -2.7518  -23.3673 C   0  0  0  0  0  0  0  0  0  0  0  0
  -14.6660   -2.4154  -22.8177 C   0  0  0  0  0  0  0  0  0  0  0  0
  -14.0663   -3.7728  -22.5613 C   0  0  0  0  0  0  0  0  0  0  0  0
  -13.6906   -3.9933  -21.5645 H   0  0  0  0  0  0  0  0  0  0  0  0
  -14.5190   -4.6200  -23.0704 H   0  0  0  0  0  0  0  0  0  0  0  0
  -14.7230   -1.7087  -21.9915 H   0  0  0  0  0  0  0  0  0  0  0  0
  -15.4757   -2.3563  -23.5337 H   0  0  0  0  0  0  0  0  0  0  0  0
  -13.2936   -2.9413  -24.4403 H   0  0  0  0  0  0  0  0  0  0  0  0
  -11.8168   -0.7264  -23.5006 C   0  0  0  0  0  0  0  0  0  0  0  0
  -10.5878   -0.0065  -22.9413 C   0  0  0  0  0  0  0  0  0  0  0  0
  -10.1783    0.7027  -23.6727 H   0  0  0  0  0  0  0  0  0  0  0  0
  -10.8340    0.5769  -22.0533 H   0  0  0  0  0  0  0  0  0  0  0  0
  -12.6907   -0.0668  -23.4042 H   0  0  0  0  0  0  0  0  0  0  0  0
  -11.6685   -0.8895  -24.5730 H   0  0  0  0  0  0  0  0  0  0  0  0
  -12.2356   -1.8733  -21.7538 H   0  0  0  0  0  0  0  0  0  0  0  0
  -10.7436   -3.5973  -22.0180 H   0  0  0  0  0  0  0  0  0  0  0  0
  -11.0004   -3.7466  -23.7421 H   0  0  0  0  0  0  0  0  0  0  0  0
   -9.4970   -2.0705  -24.3262 H   0  0  0  0  0  0  0  0  0  0  0  0
   -8.6833   -2.8201  -22.9700 H   0  0  0  0  0  0  0  0  0  0  0  0
  1  2  2  0
  2  3  1  0
  3  4  1  0
  4  5  2  0
  5  6  1  0
  6  7  2  0
  7  8  1  0
  8  9  2  0
  9 10  1  0
 10 11  2  0
 11 12  1  0
 12 13  2  0
 12 14  1  0
 11 15  1  0
 10 16  1  0
  9 17  1  0
  7 18  1  0
  5 19  1  0
  3 20  1  0
  3 21  1  0
  2 22  1  0
 22 23  1  0
 23 24  1  0
 24 25  1  0
 25 26  1  0
 26 27  1  0
 27 28  1  0
 28 29  1  0
 28 30  1  0
 27 31  1  0
 27 32  1  0
 26 33  1  0
 25 34  1  0
 34 35  1  0
 35 36  1  0
 35 37  1  0
 34 38  1  0
 34 39  1  0
 25 40  1  0
 24 41  1  0
 24 42  1  0
 23 43  1  0
 23 44  1  0
 13  4  1  0
 35 22  1  0
 13  8  1  0
 28 26  1  0
M  END
>  <cnnaffinities>  (60) 
[4.84495, 5.0191, 4.80577]

>  <score>  (60) 
4.84495

>  <index>  (60) 
62

>  <Smiles>  (60) 
O=C(C(c1c(nc(c2c(c(c(c(c12)[H])[H])[H])[H])[H])[H])([H])[H])N1C(C(C(C2(C(C2([H])[H])([H])[H])[H])(C(C1([H])[H])([H])[H])[H])([H])[H])([H])[H]

>  <h>  (60) 
<NA>

>  <Training>  (60) 
True

>  <Success>  (60) 
True

>  <enamine_searched>  (60) 
False

>  <enamine_id>  (60) 
nan

$$$$

     RDKit          3D

 57 61  0  0  0  0  0  0  0  0999 V2000
   -7.3547    3.4319  -21.8517 C   0  0  0  0  0  0  0  0  0  0  0  0
   -8.1742    2.9442  -22.9433 N   0  0  0  0  0  0  0  0  0  0  0  0
   -7.6054    2.2438  -23.9485 C   0  0  0  0  0  0  0  0  0  0  0  0
   -6.3911    2.1148  -24.0610 O   0  0  0  0  0  0  0  0  0  0  0  0
   -8.5609    1.6262  -24.9755 C   0  0  0  0  0  0  0  0  0  0  0  0
   -9.3034    0.4900  -24.4649 N   0  0  0  0  0  0  0  0  0  0  0  0
   -8.5995   -0.7651  -24.2824 C   0  0  0  0  0  0  0  0  0  0  0  0
   -9.0153   -1.4750  -22.9668 C   0  0  2  0  0  0  0  0  0  0  0  0
   -8.4654   -0.6884  -21.7540 C   0  0  0  0  0  0  0  0  0  0  0  0
   -8.8723    0.3660  -21.3074 O   0  0  0  0  0  0  0  0  0  0  0  0
   -7.4042   -1.3794  -21.2299 N   0  0  0  0  0  0  0  0  0  0  0  0
   -6.6209   -0.8169  -20.1927 C   0  0  0  0  0  0  0  0  0  0  0  0
   -6.9376   -1.0782  -18.8866 C   0  0  0  0  0  0  0  0  0  0  0  0
   -6.1826   -0.6870  -17.8340 N   0  0  0  0  0  0  0  0  0  0  0  0
   -5.1130    0.0328  -18.0846 C   0  0  0  0  0  0  0  0  0  0  0  0
   -4.7183    0.4611  -19.3915 C   0  0  0  0  0  0  0  0  0  0  0  0
   -3.6094    1.3275  -19.6294 C   0  0  0  0  0  0  0  0  0  0  0  0
   -3.2307    1.6426  -20.9076 C   0  0  0  0  0  0  0  0  0  0  0  0
   -3.9460    1.1227  -22.0093 C   0  0  0  0  0  0  0  0  0  0  0  0
   -5.0424    0.3194  -21.8053 C   0  0  0  0  0  0  0  0  0  0  0  0
   -5.4742   -0.0128  -20.4893 C   0  0  0  0  0  0  0  0  0  0  0  0
   -5.5875   -0.0684  -22.6606 H   0  0  0  0  0  0  0  0  0  0  0  0
   -3.6375    1.3661  -23.0212 H   0  0  0  0  0  0  0  0  0  0  0  0
   -2.3722    2.2859  -21.0842 H   0  0  0  0  0  0  0  0  0  0  0  0
   -3.0862    1.7455  -18.7728 H   0  0  0  0  0  0  0  0  0  0  0  0
   -4.5014    0.3122  -17.2239 H   0  0  0  0  0  0  0  0  0  0  0  0
   -7.8223   -1.6672  -18.6483 H   0  0  0  0  0  0  0  0  0  0  0  0
   -7.0797   -2.6166  -21.9090 C   0  0  0  0  0  0  0  0  0  0  0  0
   -8.3111   -2.8617  -22.8126 C   0  0  2  0  0  0  0  0  0  0  0  0
   -7.9408   -3.5827  -24.1078 C   0  0  0  0  0  0  0  0  0  0  0  0
   -7.4272   -4.8520  -23.7542 O   0  0  0  0  0  0  0  0  0  0  0  0
   -7.2065   -5.3277  -24.5633 H   0  0  0  0  0  0  0  0  0  0  0  0
   -7.1805   -2.9980  -24.6519 H   0  0  0  0  0  0  0  0  0  0  0  0
   -8.8257   -3.6828  -24.7558 H   0  0  0  0  0  0  0  0  0  0  0  0
   -8.9969   -3.5226  -22.2784 H   0  0  0  0  0  0  0  0  0  0  0  0
   -6.9137   -3.4244  -21.1862 H   0  0  0  0  0  0  0  0  0  0  0  0
   -6.1531   -2.5039  -22.4929 H   0  0  0  0  0  0  0  0  0  0  0  0
  -10.5324   -1.4855  -22.8930 C   0  0  0  0  0  0  0  0  0  0  0  0
  -11.1780   -2.3339  -21.9851 C   0  0  0  0  0  0  0  0  0  0  0  0
  -12.5572   -2.3305  -21.8996 C   0  0  0  0  0  0  0  0  0  0  0  0
  -13.3527   -3.3892  -20.7713 Cl  0  0  0  0  0  0  0  0  0  0  0  0
  -13.3313   -1.4750  -22.6841 C   0  0  0  0  0  0  0  0  0  0  0  0
  -12.6996   -0.5814  -23.5262 C   0  0  0  0  0  0  0  0  0  0  0  0
  -11.3076   -0.5613  -23.6067 C   0  0  0  0  0  0  0  0  0  0  0  0
  -10.6695    0.5408  -24.3969 C   0  0  0  0  0  0  0  0  0  0  0  0
  -11.3359    1.4348  -24.9065 O   0  0  0  0  0  0  0  0  0  0  0  0
  -13.2461    0.1440  -24.1224 H   0  0  0  0  0  0  0  0  0  0  0  0
  -14.4103   -1.4960  -22.5994 H   0  0  0  0  0  0  0  0  0  0  0  0
  -10.6140   -2.9761  -21.3178 H   0  0  0  0  0  0  0  0  0  0  0  0
   -7.5296   -0.5290  -24.2535 H   0  0  0  0  0  0  0  0  0  0  0  0
   -8.8038   -1.4411  -25.1279 H   0  0  0  0  0  0  0  0  0  0  0  0
   -7.9297    1.3349  -25.8243 H   0  0  0  0  0  0  0  0  0  0  0  0
   -9.3251    2.3354  -25.3045 H   0  0  0  0  0  0  0  0  0  0  0  0
   -9.1726    2.8831  -22.8095 H   0  0  0  0  0  0  0  0  0  0  0  0
   -6.6094    4.1484  -22.2176 H   0  0  0  0  0  0  0  0  0  0  0  0
   -8.0190    3.9385  -21.1513 H   0  0  0  0  0  0  0  0  0  0  0  0
   -6.8209    2.6041  -21.3568 H   0  0  0  0  0  0  0  0  0  0  0  0
  1  2  1  0
  2  3  1  0
  3  4  2  0
  3  5  1  0
  5  6  1  0
  6  7  1  0
  8  7  1  6
  8  9  1  0
  9 10  2  0
  9 11  1  0
 11 12  1  0
 12 13  2  0
 13 14  1  0
 14 15  2  0
 15 16  1  0
 16 17  2  0
 17 18  1  0
 18 19  2  0
 19 20  1  0
 20 21  2  0
 20 22  1  0
 19 23  1  0
 18 24  1  0
 17 25  1  0
 15 26  1  0
 13 27  1  0
 11 28  1  0
 28 29  1  0
 29 30  1  0
 30 31  1  0
 31 32  1  0
 30 33  1  0
 30 34  1  0
 29 35  1  1
 28 36  1  0
 28 37  1  0
  8 38  1  0
 38 39  2  0
 39 40  1  0
 40 41  1  0
 40 42  2  0
 42 43  1  0
 43 44  2  0
 44 45  1  0
 45 46  2  0
 43 47  1  0
 42 48  1  0
 39 49  1  0
  7 50  1  0
  7 51  1  0
  5 52  1  0
  5 53  1  0
  2 54  1  0
  1 55  1  0
  1 56  1  0
  1 57  1  0
 45  6  1  0
 29  8  1  0
 44 38  1  0
 21 12  1  0
 21 16  1  0
M  END
>  <cnnaffinities>  (61) 
[5.91422]

>  <score>  (61) 
5.91422

>  <index>  (61) 
63

>  <Smiles>  (61) 
C(N(C(=O)C(N1C([C@@]2(C(=O)N(c3c(nc(c4c(c(c(c(c34)[H])[H])[H])[H])[H])[H])C([C@@]2(C(O[H])([H])[H])[H])([H])[H])c2c(c(Cl)c(c(c2C1=O)[H])[H])[H])([H])[H])([H])[H])[H])([H])([H])[H]

>  <h>  (61) 
<NA>

>  <Training>  (61) 
True

>  <Success>  (61) 
True

>  <enamine_searched>  (61) 
False

>  <enamine_id>  (61) 
nan

$$$$

     RDKit          3D

 55 60  0  0  0  0  0  0  0  0999 V2000
  -10.4412   -1.0370  -23.3704 C   0  0  0  0  0  0  0  0  0  0  0  0
   -9.0124   -1.4343  -23.0024 C   0  0  1  0  0  0  0  0  0  0  0  0
   -8.3892   -0.5164  -21.9356 C   0  0  0  0  0  0  0  0  0  0  0  0
   -7.4076   -1.3765  -21.2894 N   0  0  0  0  0  0  0  0  0  0  0  0
   -6.5736   -0.9461  -20.2346 C   0  0  0  0  0  0  0  0  0  0  0  0
   -6.8675   -1.2807  -18.9381 C   0  0  0  0  0  0  0  0  0  0  0  0
   -6.1218   -0.9038  -17.8738 N   0  0  0  0  0  0  0  0  0  0  0  0
   -5.0736   -0.1494  -18.0995 C   0  0  0  0  0  0  0  0  0  0  0  0
   -4.6894    0.3112  -19.3913 C   0  0  0  0  0  0  0  0  0  0  0  0
   -3.5942    1.1915  -19.5896 C   0  0  0  0  0  0  0  0  0  0  0  0
   -3.2358    1.5701  -20.8545 C   0  0  0  0  0  0  0  0  0  0  0  0
   -3.9429    1.0803  -21.9766 C   0  0  0  0  0  0  0  0  0  0  0  0
   -5.0245    0.2504  -21.8093 C   0  0  0  0  0  0  0  0  0  0  0  0
   -5.4375   -0.1258  -20.5044 C   0  0  0  0  0  0  0  0  0  0  0  0
   -5.5740   -0.1332  -22.6631 H   0  0  0  0  0  0  0  0  0  0  0  0
   -3.6276    1.3626  -22.9768 H   0  0  0  0  0  0  0  0  0  0  0  0
   -2.3987    2.2461  -21.0084 H   0  0  0  0  0  0  0  0  0  0  0  0
   -3.0684    1.5616  -18.7135 H   0  0  0  0  0  0  0  0  0  0  0  0
   -4.4653    0.1279  -17.2371 H   0  0  0  0  0  0  0  0  0  0  0  0
   -7.7455   -1.8801  -18.7048 H   0  0  0  0  0  0  0  0  0  0  0  0
   -7.6870   -2.7182  -21.4458 C   0  0  0  0  0  0  0  0  0  0  0  0
   -7.0939   -3.6126  -20.8707 O   0  0  0  0  0  0  0  0  0  0  0  0
   -8.8467   -2.8877  -22.4299 C   0  0  1  0  0  0  0  0  0  0  0  0
  -10.0743   -3.3359  -21.6031 C   0  0  0  0  0  0  0  0  0  0  0  0
  -11.1720   -3.7965  -22.4347 N   0  0  0  0  0  0  0  0  0  0  0  0
  -12.5439   -3.6674  -21.9823 C   0  0  0  0  0  0  0  0  0  0  0  0
  -13.3473   -2.5594  -22.5981 C   0  0  0  0  0  0  0  0  0  0  0  0
  -13.8583   -2.6574  -23.8588 N   0  0  0  0  0  0  0  0  0  0  0  0
  -14.6216   -1.5885  -23.9445 C   0  0  0  0  0  0  0  0  0  0  0  0
  -14.5578   -0.8760  -22.8089 N   0  0  0  0  0  0  0  0  0  0  0  0
  -13.7468   -1.5026  -21.9202 N   0  0  0  0  0  0  0  0  0  0  0  0
  -15.1153   -0.0814  -22.5266 H   0  0  0  0  0  0  0  0  0  0  0  0
  -15.2427   -1.3273  -24.7902 H   0  0  0  0  0  0  0  0  0  0  0  0
  -12.5768   -3.5600  -20.8964 H   0  0  0  0  0  0  0  0  0  0  0  0
  -13.0401   -4.5847  -22.3021 H   0  0  0  0  0  0  0  0  0  0  0  0
  -10.9668   -4.6001  -23.5260 C   0  0  0  0  0  0  0  0  0  0  0  0
  -11.8895   -5.1294  -24.1226 O   0  0  0  0  0  0  0  0  0  0  0  0
   -9.5482   -4.7825  -23.9553 C   0  0  0  0  0  0  0  0  0  0  0  0
   -9.2619   -5.7757  -24.8925 C   0  0  0  0  0  0  0  0  0  0  0  0
   -7.9867   -5.9270  -25.4046 C   0  0  0  0  0  0  0  0  0  0  0  0
   -6.9999   -5.0542  -24.9579 C   0  0  0  0  0  0  0  0  0  0  0  0
   -5.7582   -5.1838  -25.4538 F   0  0  0  0  0  0  0  0  0  0  0  0
   -7.2419   -4.0936  -23.9935 C   0  0  0  0  0  0  0  0  0  0  0  0
   -8.5376   -3.9474  -23.4731 C   0  0  0  0  0  0  0  0  0  0  0  0
   -6.4083   -3.5137  -23.6084 H   0  0  0  0  0  0  0  0  0  0  0  0
   -7.7460   -6.7102  -26.1195 H   0  0  0  0  0  0  0  0  0  0  0  0
  -10.0669   -6.4320  -25.2051 H   0  0  0  0  0  0  0  0  0  0  0  0
   -9.7528   -4.1209  -20.9131 H   0  0  0  0  0  0  0  0  0  0  0  0
  -10.4257   -2.4984  -20.9935 H   0  0  0  0  0  0  0  0  0  0  0  0
   -7.9247    0.3783  -22.3619 H   0  0  0  0  0  0  0  0  0  0  0  0
   -9.1470   -0.1623  -21.2183 H   0  0  0  0  0  0  0  0  0  0  0  0
   -8.3764   -1.3928  -23.8959 H   0  0  0  0  0  0  0  0  0  0  0  0
  -11.0651   -0.9800  -22.4713 H   0  0  0  0  0  0  0  0  0  0  0  0
  -10.4824   -0.0597  -23.8621 H   0  0  0  0  0  0  0  0  0  0  0  0
  -10.8856   -1.7832  -24.0371 H   0  0  0  0  0  0  0  0  0  0  0  0
  1  2  1  0
  2  3  1  0
  3  4  1  0
  4  5  1  0
  5  6  2  0
  6  7  1  0
  7  8  2  0
  8  9  1  0
  9 10  2  0
 10 11  1  0
 11 12  2  0
 12 13  1  0
 13 14  2  0
 13 15  1  0
 12 16  1  0
 11 17  1  0
 10 18  1  0
  8 19  1  0
  6 20  1  0
  4 21  1  0
 21 22  2  0
 21 23  1  0
 23 24  1  1
 24 25  1  0
 25 26  1  0
 26 27  1  0
 27 28  1  0
 28 29  2  0
 29 30  1  0
 30 31  1  0
 30 32  1  0
 29 33  1  0
 26 34  1  0
 26 35  1  0
 25 36  1  0
 36 37  2  0
 36 38  1  0
 38 39  2  0
 39 40  1  0
 40 41  2  0
 41 42  1  0
 41 43  1  0
 43 44  2  0
 43 45  1  0
 40 46  1  0
 39 47  1  0
 24 48  1  0
 24 49  1  0
  3 50  1  0
  3 51  1  0
  2 52  1  6
  1 53  1  0
  1 54  1  0
  1 55  1  0
 23  2  1  0
 31 27  2  0
 44 38  1  0
 14  5  1  0
 44 23  1  0
 14  9  1  0
M  END
>  <cnnaffinities>  (62) 
[6.771, 6.69211]

>  <score>  (62) 
6.771

>  <index>  (62) 
64

>  <Smiles>  (62) 
C([C@]1(C(N(c2c(nc(c3c(c(c(c(c23)[H])[H])[H])[H])[H])[H])C(=O)[C@]21C(N(C(c1nc(n(n1)[H])[H])([H])[H])C(=O)c1c(c(c(F)c(c21)[H])[H])[H])([H])[H])([H])[H])[H])([H])([H])[H]

>  <h>  (62) 
<NA>

>  <Training>  (62) 
True

>  <Success>  (62) 
True

>  <enamine_searched>  (62) 
False

>  <enamine_id>  (62) 
nan

$$$$

     RDKit          3D

 55 60  0  0  0  0  0  0  0  0999 V2000
  -10.4398   -1.0276  -23.3940 C   0  0  0  0  0  0  0  0  0  0  0  0
   -9.0093   -1.4155  -23.0253 C   0  0  1  0  0  0  0  0  0  0  0  0
   -8.3982   -0.5104  -21.9388 C   0  0  0  0  0  0  0  0  0  0  0  0
   -7.4135   -1.3780  -21.3053 N   0  0  0  0  0  0  0  0  0  0  0  0
   -6.5789   -0.9636  -20.2465 C   0  0  0  0  0  0  0  0  0  0  0  0
   -6.8680   -1.3255  -18.9554 C   0  0  0  0  0  0  0  0  0  0  0  0
   -6.1154   -0.9695  -17.8894 N   0  0  0  0  0  0  0  0  0  0  0  0
   -5.0684   -0.2120  -18.1106 C   0  0  0  0  0  0  0  0  0  0  0  0
   -4.6880    0.2701  -19.3957 C   0  0  0  0  0  0  0  0  0  0  0  0
   -3.5993    1.1584  -19.5850 C   0  0  0  0  0  0  0  0  0  0  0  0
   -3.2458    1.5565  -20.8446 C   0  0  0  0  0  0  0  0  0  0  0  0
   -3.9523    1.0795  -21.9725 C   0  0  0  0  0  0  0  0  0  0  0  0
   -5.0303    0.2441  -21.8135 C   0  0  0  0  0  0  0  0  0  0  0  0
   -5.4403   -0.1470  -20.5122 C   0  0  0  0  0  0  0  0  0  0  0  0
   -5.5794   -0.1294  -22.6721 H   0  0  0  0  0  0  0  0  0  0  0  0
   -3.6387    1.3759  -22.9680 H   0  0  0  0  0  0  0  0  0  0  0  0
   -2.4136    2.2391  -20.9908 H   0  0  0  0  0  0  0  0  0  0  0  0
   -3.0751    1.5199  -18.7053 H   0  0  0  0  0  0  0  0  0  0  0  0
   -4.4557    0.0468  -17.2483 H   0  0  0  0  0  0  0  0  0  0  0  0
   -7.7454   -1.9316  -18.7349 H   0  0  0  0  0  0  0  0  0  0  0  0
   -7.6821   -2.7196  -21.4840 C   0  0  0  0  0  0  0  0  0  0  0  0
   -7.1031   -3.6187  -20.9104 O   0  0  0  0  0  0  0  0  0  0  0  0
   -8.8383   -2.8740  -22.4726 C   0  0  1  0  0  0  0  0  0  0  0  0
  -10.0655   -3.3398  -21.6516 C   0  0  0  0  0  0  0  0  0  0  0  0
  -11.1652   -3.7931  -22.4801 N   0  0  0  0  0  0  0  0  0  0  0  0
  -12.5369   -3.7030  -22.0036 C   0  0  0  0  0  0  0  0  0  0  0  0
  -13.3522   -2.5760  -22.5415 C   0  0  0  0  0  0  0  0  0  0  0  0
  -14.0025   -2.4960  -23.7241 C   0  0  0  0  0  0  0  0  0  0  0  0
  -14.7531   -1.3547  -23.7088 O   0  0  0  0  0  0  0  0  0  0  0  0
  -14.5012   -0.8030  -22.5073 C   0  0  0  0  0  0  0  0  0  0  0  0
  -13.6756   -1.4678  -21.7692 N   0  0  0  0  0  0  0  0  0  0  0  0
  -15.0027    0.1294  -22.2841 H   0  0  0  0  0  0  0  0  0  0  0  0
  -14.0825   -3.1387  -24.5911 H   0  0  0  0  0  0  0  0  0  0  0  0
  -12.5494   -3.6215  -20.9155 H   0  0  0  0  0  0  0  0  0  0  0  0
  -13.0370   -4.6194  -22.3210 H   0  0  0  0  0  0  0  0  0  0  0  0
  -10.9657   -4.4661  -23.6534 C   0  0  0  0  0  0  0  0  0  0  0  0
  -11.9108   -4.8336  -24.3388 O   0  0  0  0  0  0  0  0  0  0  0  0
   -9.5417   -4.7251  -24.0373 C   0  0  0  0  0  0  0  0  0  0  0  0
   -9.2544   -5.7461  -24.9470 C   0  0  0  0  0  0  0  0  0  0  0  0
   -7.9651   -5.9282  -25.4210 C   0  0  0  0  0  0  0  0  0  0  0  0
   -6.9753   -5.0626  -24.9633 C   0  0  0  0  0  0  0  0  0  0  0  0
   -5.7249   -5.2019  -25.4337 F   0  0  0  0  0  0  0  0  0  0  0  0
   -7.2170   -4.0919  -24.0092 C   0  0  0  0  0  0  0  0  0  0  0  0
   -8.5209   -3.9203  -23.5224 C   0  0  0  0  0  0  0  0  0  0  0  0
   -6.3856   -3.5249  -23.6002 H   0  0  0  0  0  0  0  0  0  0  0  0
   -7.7082   -6.7254  -26.1148 H   0  0  0  0  0  0  0  0  0  0  0  0
  -10.0559   -6.4049  -25.2698 H   0  0  0  0  0  0  0  0  0  0  0  0
  -10.4323   -2.5204  -21.0317 H   0  0  0  0  0  0  0  0  0  0  0  0
   -9.7286   -4.1176  -20.9617 H   0  0  0  0  0  0  0  0  0  0  0  0
   -9.1674   -0.1796  -21.2197 H   0  0  0  0  0  0  0  0  0  0  0  0
   -7.9349    0.3933  -22.3495 H   0  0  0  0  0  0  0  0  0  0  0  0
   -8.3678   -1.3598  -23.9153 H   0  0  0  0  0  0  0  0  0  0  0  0
  -10.4853   -0.0507  -23.8834 H   0  0  0  0  0  0  0  0  0  0  0  0
  -10.8790   -1.7759  -24.0634 H   0  0  0  0  0  0  0  0  0  0  0  0
  -11.0692   -0.9728  -22.4977 H   0  0  0  0  0  0  0  0  0  0  0  0
  1  2  1  0
  2  3  1  0
  3  4  1  0
  4  5  1  0
  5  6  2  0
  6  7  1  0
  7  8  2  0
  8  9  1  0
  9 10  2  0
 10 11  1  0
 11 12  2  0
 12 13  1  0
 13 14  2  0
 13 15  1  0
 12 16  1  0
 11 17  1  0
 10 18  1  0
  8 19  1  0
  6 20  1  0
  4 21  1  0
 21 22  2  0
 21 23  1  0
 23 24  1  1
 24 25  1  0
 25 26  1  0
 26 27  1  0
 27 28  2  0
 28 29  1  0
 29 30  1  0
 30 31  2  0
 30 32  1  0
 28 33  1  0
 26 34  1  0
 26 35  1  0
 25 36  1  0
 36 37  2  0
 36 38  1  0
 38 39  2  0
 39 40  1  0
 40 41  2  0
 41 42  1  0
 41 43  1  0
 43 44  2  0
 43 45  1  0
 40 46  1  0
 39 47  1  0
 24 48  1  0
 24 49  1  0
  3 50  1  0
  3 51  1  0
  2 52  1  6
  1 53  1  0
  1 54  1  0
  1 55  1  0
 23  2  1  0
 31 27  1  0
 44 38  1  0
 14  5  1  0
 44 23  1  0
 14  9  1  0
M  END
>  <cnnaffinities>  (63) 
[6.71849]

>  <score>  (63) 
6.71849

>  <index>  (63) 
65

>  <Smiles>  (63) 
C([C@]1(C(N(c2c(nc(c3c(c(c(c(c23)[H])[H])[H])[H])[H])[H])C(=O)[C@]21C(N(C(c1c(oc(n1)[H])[H])([H])[H])C(=O)c1c(c(c(F)c(c21)[H])[H])[H])([H])[H])([H])[H])[H])([H])([H])[H]

>  <h>  (63) 
<NA>

>  <Training>  (63) 
True

>  <Success>  (63) 
True

>  <enamine_searched>  (63) 
False

>  <enamine_id>  (63) 
nan

$$$$

     RDKit          3D

 44 47  0  0  0  0  0  0  0  0999 V2000
   -7.8584   -0.6106  -24.9374 C   0  0  0  0  0  0  0  0  0  0  0  0
   -8.3756   -2.0373  -25.1013 C   0  0  0  0  0  0  0  0  0  0  0  0
   -8.3438   -2.8713  -23.8056 C   0  0  1  0  0  0  0  0  0  0  0  0
   -8.9077   -4.2521  -24.0623 C   0  0  0  0  0  0  0  0  0  0  0  0
  -10.2815   -4.5693  -24.3103 C   0  0  0  0  0  0  0  0  0  0  0  0
  -10.4749   -5.8872  -24.5920 C   0  0  0  0  0  0  0  0  0  0  0  0
   -8.9870   -6.7585  -24.5689 S   0  0  0  0  0  0  0  0  0  0  0  0
   -8.0905   -5.3377  -24.1560 C   0  0  0  0  0  0  0  0  0  0  0  0
   -6.6070   -5.3399  -23.9025 C   0  0  0  0  0  0  0  0  0  0  0  0
   -6.1030   -3.8961  -23.9551 C   0  0  0  0  0  0  0  0  0  0  0  0
   -6.9985   -2.9961  -23.2426 N   0  0  0  0  0  0  0  0  0  0  0  0
   -6.6598   -2.6726  -21.9439 C   0  0  0  0  0  0  0  0  0  0  0  0
   -5.7821   -3.2748  -21.3455 O   0  0  0  0  0  0  0  0  0  0  0  0
   -7.4040   -1.4923  -21.3022 C   0  0  0  0  0  0  0  0  0  0  0  0
   -6.6008   -0.8445  -20.2086 C   0  0  0  0  0  0  0  0  0  0  0  0
   -6.9047   -1.0999  -18.8980 C   0  0  0  0  0  0  0  0  0  0  0  0
   -6.1648   -0.7077  -17.8301 N   0  0  0  0  0  0  0  0  0  0  0  0
   -5.0961    0.0125  -18.0793 C   0  0  0  0  0  0  0  0  0  0  0  0
   -4.7052    0.4401  -19.3813 C   0  0  0  0  0  0  0  0  0  0  0  0
   -3.6045    1.3085  -19.6090 C   0  0  0  0  0  0  0  0  0  0  0  0
   -3.2157    1.6214  -20.8853 C   0  0  0  0  0  0  0  0  0  0  0  0
   -3.9183    1.0948  -21.9920 C   0  0  0  0  0  0  0  0  0  0  0  0
   -5.0152    0.2920  -21.7962 C   0  0  0  0  0  0  0  0  0  0  0  0
   -5.4544   -0.0407  -20.4860 C   0  0  0  0  0  0  0  0  0  0  0  0
   -5.5445   -0.1039  -22.6583 H   0  0  0  0  0  0  0  0  0  0  0  0
   -3.5835    1.3275  -22.9991 H   0  0  0  0  0  0  0  0  0  0  0  0
   -2.3553    2.2614  -21.0605 H   0  0  0  0  0  0  0  0  0  0  0  0
   -3.0885    1.7319  -18.7479 H   0  0  0  0  0  0  0  0  0  0  0  0
   -4.4791    0.2851  -17.2172 H   0  0  0  0  0  0  0  0  0  0  0  0
   -7.7945   -1.6825  -18.6497 H   0  0  0  0  0  0  0  0  0  0  0  0
   -7.6765   -0.7723  -22.0819 H   0  0  0  0  0  0  0  0  0  0  0  0
   -8.3413   -1.8708  -20.8708 H   0  0  0  0  0  0  0  0  0  0  0  0
   -6.0477   -3.5529  -24.9990 H   0  0  0  0  0  0  0  0  0  0  0  0
   -5.1217   -3.8054  -23.4819 H   0  0  0  0  0  0  0  0  0  0  0  0
   -6.3936   -5.7776  -22.9136 H   0  0  0  0  0  0  0  0  0  0  0  0
   -6.0824   -5.9462  -24.6534 H   0  0  0  0  0  0  0  0  0  0  0  0
  -11.4046   -6.4182  -24.7675 H   0  0  0  0  0  0  0  0  0  0  0  0
  -11.0847   -3.8411  -24.2598 H   0  0  0  0  0  0  0  0  0  0  0  0
   -8.9669   -2.3662  -23.0521 H   0  0  0  0  0  0  0  0  0  0  0  0
   -7.8160   -2.5743  -25.8833 H   0  0  0  0  0  0  0  0  0  0  0  0
   -9.4221   -2.0418  -25.4318 H   0  0  0  0  0  0  0  0  0  0  0  0
   -7.9189   -0.0559  -25.8790 H   0  0  0  0  0  0  0  0  0  0  0  0
   -6.8093   -0.5927  -24.6142 H   0  0  0  0  0  0  0  0  0  0  0  0
   -8.4464   -0.0505  -24.1978 H   0  0  0  0  0  0  0  0  0  0  0  0
  1  2  1  0
  2  3  1  0
  3  4  1  0
  4  5  1  0
  5  6  2  0
  6  7  1  0
  7  8  1  0
  8  9  1  0
  9 10  1  0
 10 11  1  0
 11 12  1  0
 12 13  2  0
 12 14  1  0
 14 15  1  0
 15 16  2  0
 16 17  1  0
 17 18  2  0
 18 19  1  0
 19 20  2  0
 20 21  1  0
 21 22  2  0
 22 23  1  0
 23 24  2  0
 23 25  1  0
 22 26  1  0
 21 27  1  0
 20 28  1  0
 18 29  1  0
 16 30  1  0
 14 31  1  0
 14 32  1  0
 10 33  1  0
 10 34  1  0
  9 35  1  0
  9 36  1  0
  6 37  1  0
  5 38  1  0
  3 39  1  1
  2 40  1  0
  2 41  1  0
  1 42  1  0
  1 43  1  0
  1 44  1  0
 11  3  1  0
 24 15  1  0
  8  4  2  0
 24 19  1  0
M  END
>  <cnnaffinities>  (64) 
[5.62362, 5.26031]

>  <score>  (64) 
5.62362

>  <index>  (64) 
66

>  <Smiles>  (64) 
C(C([C@]1(c2c(c(sc2C(C(N1C(=O)C(c1c(nc(c2c(c(c(c(c12)[H])[H])[H])[H])[H])[H])([H])[H])([H])[H])([H])[H])[H])[H])[H])([H])[H])([H])([H])[H]

>  <h>  (64) 
<NA>

>  <Training>  (64) 
True

>  <Success>  (64) 
True

>  <enamine_searched>  (64) 
False

>  <enamine_id>  (64) 
nan

$$$$

     RDKit          3D

 58 63  0  0  0  0  0  0  0  0999 V2000
   -6.4869   -0.2665  -30.5848 C   0  0  0  0  0  0  0  0  0  0  0  0
   -6.3849   -0.2676  -29.0929 C   0  0  0  0  0  0  0  0  0  0  0  0
   -7.0992    0.5821  -28.2021 C   0  0  0  0  0  0  0  0  0  0  0  0
   -6.6792    0.1941  -26.9753 C   0  0  0  0  0  0  0  0  0  0  0  0
   -7.0620    0.6620  -25.6051 C   0  0  0  0  0  0  0  0  0  0  0  0
   -8.1836   -0.0488  -25.0335 N   0  0  0  0  0  0  0  0  0  0  0  0
   -7.9706   -1.3631  -24.4685 C   0  0  0  0  0  0  0  0  0  0  0  0
   -8.7619   -1.5222  -23.1511 C   0  0  2  0  0  0  0  0  0  0  0  0
   -8.1355   -0.6000  -22.0851 C   0  0  0  0  0  0  0  0  0  0  0  0
   -8.2161    0.6043  -22.0136 O   0  0  0  0  0  0  0  0  0  0  0  0
   -7.4251   -1.3789  -21.2081 N   0  0  0  0  0  0  0  0  0  0  0  0
   -6.6208   -0.8204  -20.1931 C   0  0  0  0  0  0  0  0  0  0  0  0
   -6.9187   -1.1026  -18.8843 C   0  0  0  0  0  0  0  0  0  0  0  0
   -6.1690   -0.7111  -17.8309 N   0  0  0  0  0  0  0  0  0  0  0  0
   -5.1072    0.0179  -18.0886 C   0  0  0  0  0  0  0  0  0  0  0  0
   -4.7204    0.4429  -19.3969 C   0  0  0  0  0  0  0  0  0  0  0  0
   -3.6086    1.3053  -19.6213 C   0  0  0  0  0  0  0  0  0  0  0  0
   -3.2050    1.6061  -20.8945 C   0  0  0  0  0  0  0  0  0  0  0  0
   -3.8933    1.0652  -22.0044 C   0  0  0  0  0  0  0  0  0  0  0  0
   -4.9936    0.2681  -21.8129 C   0  0  0  0  0  0  0  0  0  0  0  0
   -5.4641   -0.0313  -20.4981 C   0  0  0  0  0  0  0  0  0  0  0  0
   -5.5124   -0.1412  -22.6749 H   0  0  0  0  0  0  0  0  0  0  0  0
   -3.5427    1.2891  -23.0082 H   0  0  0  0  0  0  0  0  0  0  0  0
   -2.3456    2.2499  -21.0647 H   0  0  0  0  0  0  0  0  0  0  0  0
   -3.0982    1.7289  -18.7601 H   0  0  0  0  0  0  0  0  0  0  0  0
   -4.4922    0.3008  -17.2336 H   0  0  0  0  0  0  0  0  0  0  0  0
   -7.8115   -1.6877  -18.6571 H   0  0  0  0  0  0  0  0  0  0  0  0
   -7.4449   -2.7949  -21.5068 C   0  0  0  0  0  0  0  0  0  0  0  0
   -8.5822   -2.9413  -22.5345 C   0  0  2  0  0  0  0  0  0  0  0  0
   -8.3430   -4.0956  -23.5121 C   0  0  0  0  0  0  0  0  0  0  0  0
   -8.2991   -5.0546  -22.9833 H   0  0  0  0  0  0  0  0  0  0  0  0
   -7.3894   -3.9689  -24.0399 H   0  0  0  0  0  0  0  0  0  0  0  0
   -9.1355   -4.1658  -24.2663 H   0  0  0  0  0  0  0  0  0  0  0  0
   -9.4996   -3.1463  -21.9805 H   0  0  0  0  0  0  0  0  0  0  0  0
   -7.6158   -3.3717  -20.5919 H   0  0  0  0  0  0  0  0  0  0  0  0
   -6.4776   -3.1134  -21.9233 H   0  0  0  0  0  0  0  0  0  0  0  0
  -10.1914   -1.0798  -23.3823 C   0  0  0  0  0  0  0  0  0  0  0  0
  -11.2049   -1.4542  -22.4911 C   0  0  0  0  0  0  0  0  0  0  0  0
  -12.4921   -1.0104  -22.7126 C   0  0  0  0  0  0  0  0  0  0  0  0
  -13.4686   -1.4062  -21.8799 F   0  0  0  0  0  0  0  0  0  0  0  0
  -12.8191   -0.1461  -23.7528 C   0  0  0  0  0  0  0  0  0  0  0  0
  -11.7972    0.3359  -24.5493 C   0  0  0  0  0  0  0  0  0  0  0  0
  -10.5004   -0.1482  -24.3831 C   0  0  0  0  0  0  0  0  0  0  0  0
   -9.4466    0.4108  -25.2843 C   0  0  0  0  0  0  0  0  0  0  0  0
   -9.6927    1.2367  -26.1539 O   0  0  0  0  0  0  0  0  0  0  0  0
  -11.9367    1.1359  -25.2733 H   0  0  0  0  0  0  0  0  0  0  0  0
  -13.8557    0.1229  -23.9162 H   0  0  0  0  0  0  0  0  0  0  0  0
  -11.0026   -2.0057  -21.5785 H   0  0  0  0  0  0  0  0  0  0  0  0
   -8.3068   -2.1298  -25.1845 H   0  0  0  0  0  0  0  0  0  0  0  0
   -6.8945   -1.4871  -24.2870 H   0  0  0  0  0  0  0  0  0  0  0  0
   -6.2092    0.5728  -24.9226 H   0  0  0  0  0  0  0  0  0  0  0  0
   -7.3683    1.7082  -25.6713 H   0  0  0  0  0  0  0  0  0  0  0  0
   -5.7957   -0.8038  -27.0958 O   0  0  0  0  0  0  0  0  0  0  0  0
   -5.6040   -1.0913  -28.4338 N   0  0  0  0  0  0  0  0  0  0  0  0
   -7.8215    1.3506  -28.4323 H   0  0  0  0  0  0  0  0  0  0  0  0
   -7.5127   -0.0209  -30.8780 H   0  0  0  0  0  0  0  0  0  0  0  0
   -6.2215   -1.2345  -31.0175 H   0  0  0  0  0  0  0  0  0  0  0  0
   -5.8289    0.4969  -31.0153 H   0  0  0  0  0  0  0  0  0  0  0  0
  1  2  1  0
  2  3  1  0
  3  4  2  0
  4  5  1  0
  5  6  1  0
  6  7  1  0
  8  7  1  6
  8  9  1  0
  9 10  2  0
  9 11  1  0
 11 12  1  0
 12 13  2  0
 13 14  1  0
 14 15  2  0
 15 16  1  0
 16 17  2  0
 17 18  1  0
 18 19  2  0
 19 20  1  0
 20 21  2  0
 20 22  1  0
 19 23  1  0
 18 24  1  0
 17 25  1  0
 15 26  1  0
 13 27  1  0
 11 28  1  0
 28 29  1  0
 29 30  1  0
 30 31  1  0
 30 32  1  0
 30 33  1  0
 29 34  1  1
 28 35  1  0
 28 36  1  0
  8 37  1  0
 37 38  2  0
 38 39  1  0
 39 40  1  0
 39 41  2  0
 41 42  1  0
 42 43  2  0
 43 44  1  0
 44 45  2  0
 42 46  1  0
 41 47  1  0
 38 48  1  0
  7 49  1  0
  7 50  1  0
  5 51  1  0
  5 52  1  0
  4 53  1  0
 53 54  1  0
  3 55  1  0
  1 56  1  0
  1 57  1  0
  1 58  1  0
 54  2  2  0
 44  6  1  0
 29  8  1  0
 43 37  1  0
 21 12  1  0
 21 16  1  0
M  END
>  <cnnaffinities>  (65) 
[5.93716, 6.15364]

>  <score>  (65) 
5.93716

>  <index>  (65) 
67

>  <Smiles>  (65) 
C(c1c(c(C(N2C([C@@]3(C(=O)N(c4c(nc(c5c(c(c(c(c45)[H])[H])[H])[H])[H])[H])C([C@@]3(C([H])([H])[H])[H])([H])[H])c3c(c(F)c(c(c3C2=O)[H])[H])[H])([H])[H])([H])[H])on1)[H])([H])([H])[H]

>  <h>  (65) 
<NA>

>  <Training>  (65) 
True

>  <Success>  (65) 
True

>  <enamine_searched>  (65) 
False

>  <enamine_id>  (65) 
nan

$$$$

     RDKit          3D

 65 70  0  0  0  0  0  0  0  0999 V2000
   -9.2398    0.0761  -20.8405 O   0  0  0  0  0  0  0  0  0  0  0  0
   -8.4849   -0.3549  -21.6980 C   0  0  0  0  0  0  0  0  0  0  0  0
   -7.4677   -1.4251  -21.3055 C   0  0  0  0  0  0  0  0  0  0  0  0
   -6.5773   -0.8881  -20.2090 C   0  0  0  0  0  0  0  0  0  0  0  0
   -6.8969   -1.1170  -18.8981 C   0  0  0  0  0  0  0  0  0  0  0  0
   -6.1525   -0.7300  -17.8324 N   0  0  0  0  0  0  0  0  0  0  0  0
   -5.0868   -0.0104  -18.0855 C   0  0  0  0  0  0  0  0  0  0  0  0
   -4.6932    0.4054  -19.3889 C   0  0  0  0  0  0  0  0  0  0  0  0
   -3.5974    1.2817  -19.6036 C   0  0  0  0  0  0  0  0  0  0  0  0
   -3.2170    1.6169  -20.8758 C   0  0  0  0  0  0  0  0  0  0  0  0
   -3.9241    1.1016  -21.9830 C   0  0  0  0  0  0  0  0  0  0  0  0
   -5.0149    0.2868  -21.7982 C   0  0  0  0  0  0  0  0  0  0  0  0
   -5.4421   -0.0732  -20.4912 C   0  0  0  0  0  0  0  0  0  0  0  0
   -5.5654   -0.0584  -22.6682 H   0  0  0  0  0  0  0  0  0  0  0  0
   -3.5966    1.3533  -22.9888 H   0  0  0  0  0  0  0  0  0  0  0  0
   -2.3661    2.2707  -21.0411 H   0  0  0  0  0  0  0  0  0  0  0  0
   -3.0810    1.6878  -18.7377 H   0  0  0  0  0  0  0  0  0  0  0  0
   -4.4746    0.2854  -17.2303 H   0  0  0  0  0  0  0  0  0  0  0  0
   -7.8136   -1.6545  -18.6558 H   0  0  0  0  0  0  0  0  0  0  0  0
   -6.8694   -1.7616  -22.1540 H   0  0  0  0  0  0  0  0  0  0  0  0
   -8.0389   -2.2775  -20.9148 H   0  0  0  0  0  0  0  0  0  0  0  0
   -8.4544    0.1527  -22.9874 N   0  0  0  0  0  0  0  0  0  0  0  0
   -8.2462   -0.7022  -24.1581 C   0  0  0  0  0  0  0  0  0  0  0  0
   -9.3655   -1.7139  -24.3384 C   0  0  0  0  0  0  0  0  0  0  0  0
   -9.2191   -3.0181  -23.8626 C   0  0  0  0  0  0  0  0  0  0  0  0
  -10.2618   -3.9325  -23.9605 C   0  0  0  0  0  0  0  0  0  0  0  0
  -11.4788   -3.5566  -24.5113 C   0  0  0  0  0  0  0  0  0  0  0  0
  -11.6330   -2.2489  -24.9560 C   0  0  0  0  0  0  0  0  0  0  0  0
  -13.2042   -1.7592  -25.5241 Cl  0  0  0  0  0  0  0  0  0  0  0  0
  -10.5851   -1.3367  -24.9087 C   0  0  0  0  0  0  0  0  0  0  0  0
  -10.7417   -0.3426  -25.3273 H   0  0  0  0  0  0  0  0  0  0  0  0
  -12.3025   -4.2571  -24.5983 H   0  0  0  0  0  0  0  0  0  0  0  0
  -10.1339   -4.9496  -23.5958 H   0  0  0  0  0  0  0  0  0  0  0  0
   -8.2785   -3.3323  -23.4132 H   0  0  0  0  0  0  0  0  0  0  0  0
   -8.1801   -0.0608  -25.0398 H   0  0  0  0  0  0  0  0  0  0  0  0
   -7.2848   -1.2238  -24.0689 H   0  0  0  0  0  0  0  0  0  0  0  0
   -8.8325    1.5557  -23.1161 C   0  0  2  0  0  0  0  0  0  0  0  0
  -10.3057    1.9182  -22.8099 C   0  0  0  0  0  0  0  0  0  0  0  0
  -10.4522    3.3234  -23.4429 C   0  0  0  0  0  0  0  0  0  0  0  0
   -9.0673    3.5911  -24.0233 C   0  0  2  0  0  0  0  0  0  0  0  0
   -8.6220    2.2108  -24.4899 C   0  0  0  0  0  0  0  0  0  0  0  0
   -7.5734    2.1689  -24.8118 H   0  0  0  0  0  0  0  0  0  0  0  0
   -9.2784    1.8098  -25.2707 H   0  0  0  0  0  0  0  0  0  0  0  0
   -8.1020    3.8434  -22.8392 N   0  0  2  0  0  4  0  0  0  0  0  0
   -6.8267    4.4524  -23.3200 C   0  0  0  0  0  0  0  0  0  0  0  0
   -6.9490    5.9523  -23.2357 C   0  0  0  0  0  0  0  0  0  0  0  0
   -5.7688    6.8717  -23.5253 C   0  0  0  0  0  0  0  0  0  0  0  0
   -5.9955    7.5926  -22.2978 O   0  0  0  0  0  0  0  0  0  0  0  0
   -6.8200    6.5161  -21.8245 C   0  0  0  0  0  0  0  0  0  0  0  0
   -6.2495    5.8455  -21.1633 H   0  0  0  0  0  0  0  0  0  0  0  0
   -7.7489    6.8172  -21.3296 H   0  0  0  0  0  0  0  0  0  0  0  0
   -5.8385    7.5338  -24.3958 H   0  0  0  0  0  0  0  0  0  0  0  0
   -4.8077    6.3339  -23.5091 H   0  0  0  0  0  0  0  0  0  0  0  0
   -7.8725    6.3064  -23.6910 H   0  0  0  0  0  0  0  0  0  0  0  0
   -6.6104    4.0955  -24.3278 H   0  0  0  0  0  0  0  0  0  0  0  0
   -5.9873    4.1307  -22.6989 H   0  0  0  0  0  0  0  0  0  0  0  0
   -7.9695    2.4771  -22.2127 C   0  0  0  0  0  0  0  0  0  0  0  0
   -8.3400    2.5101  -21.1876 H   0  0  0  0  0  0  0  0  0  0  0  0
   -6.9212    2.1697  -22.1949 H   0  0  0  0  0  0  0  0  0  0  0  0
   -8.5005    4.5026  -22.1505 H   0  0  0  0  0  0  0  0  0  0  0  0
   -9.0133    4.4069  -24.7394 H   0  0  0  0  0  0  0  0  0  0  0  0
  -10.7387    4.0959  -22.7214 H   0  0  0  0  0  0  0  0  0  0  0  0
  -11.1936    3.3185  -24.2454 H   0  0  0  0  0  0  0  0  0  0  0  0
  -10.5052    1.9103  -21.7389 H   0  0  0  0  0  0  0  0  0  0  0  0
  -10.9614    1.1850  -23.2901 H   0  0  0  0  0  0  0  0  0  0  0  0
  1  2  2  0
  2  3  1  0
  3  4  1  0
  4  5  2  0
  5  6  1  0
  6  7  2  0
  7  8  1  0
  8  9  2  0
  9 10  1  0
 10 11  2  0
 11 12  1  0
 12 13  2  0
 12 14  1  0
 11 15  1  0
 10 16  1  0
  9 17  1  0
  7 18  1  0
  5 19  1  0
  3 20  1  0
  3 21  1  0
  2 22  1  0
 22 23  1  0
 23 24  1  0
 24 25  2  0
 25 26  1  0
 26 27  2  0
 27 28  1  0
 28 29  1  0
 28 30  2  0
 30 31  1  0
 27 32  1  0
 26 33  1  0
 25 34  1  0
 23 35  1  0
 23 36  1  0
 37 22  1  6
 37 38  1  0
 38 39  1  0
 39 40  1  0
 40 41  1  0
 41 42  1  0
 41 43  1  0
 40 44  1  0
 44 45  1  0
 45 46  1  0
 46 47  1  0
 47 48  1  0
 48 49  1  0
 49 50  1  0
 49 51  1  0
 47 52  1  0
 47 53  1  0
 46 54  1  0
 45 55  1  0
 45 56  1  0
 44 57  1  0
 57 58  1  0
 57 59  1  0
 44 60  1  1
 40 61  1  6
 39 62  1  0
 39 63  1  0
 38 64  1  0
 38 65  1  0
 13  4  1  0
 30 24  1  0
 41 37  1  0
 49 46  1  0
 13  8  1  0
 57 37  1  0
M  CHG  1  44   1
M  END
>  <cnnaffinities>  (66) 
[6.12529, 5.84456, 5.98497, 5.8812]

>  <score>  (66) 
6.12529

>  <index>  (66) 
68

>  <Smiles>  (66) 
O=C(C(c1c(nc(c2c(c(c(c(c12)[H])[H])[H])[H])[H])[H])([H])[H])N(C(c1c(c(c(c(Cl)c1[H])[H])[H])[H])([H])[H])[C@]12C(C([C@](C1([H])[H])([N@+](C(C1(C(OC1([H])[H])([H])[H])[H])([H])[H])(C2([H])[H])[H])[H])([H])[H])([H])[H]

>  <h>  (66) 
<NA>

>  <Training>  (66) 
True

>  <Success>  (66) 
True

>  <enamine_searched>  (66) 
False

>  <enamine_id>  (66) 
nan

$$$$

     RDKit          3D

 63 67  0  0  0  0  0  0  0  0999 V2000
   -7.3872   -6.1738  -26.9288 C   0  0  0  0  0  0  0  0  0  0  0  0
   -7.8412   -5.1878  -26.1640 C   0  0  0  0  0  0  0  0  0  0  0  0
   -9.2873   -4.8438  -26.1950 C   0  0  0  0  0  0  0  0  0  0  0  0
  -10.0953   -5.5563  -26.7604 O   0  0  0  0  0  0  0  0  0  0  0  0
   -9.7184   -3.7529  -25.4641 N   0  0  0  0  0  0  0  0  0  0  0  0
  -11.0350   -3.9545  -24.8629 C   0  0  0  0  0  0  0  0  0  0  0  0
  -11.5148   -2.7408  -24.0967 C   0  0  0  0  0  0  0  0  0  0  0  0
  -10.3539   -2.1592  -23.2993 C   0  0  0  0  0  0  0  0  0  0  0  0
   -9.2276   -1.7530  -24.2297 C   0  0  0  0  0  0  0  0  0  0  0  0
   -8.9823   -2.5663  -25.3436 C   0  0  0  0  0  0  0  0  0  0  0  0
   -8.0676   -2.1779  -26.3345 C   0  0  0  0  0  0  0  0  0  0  0  0
   -7.2967   -1.0405  -26.1666 C   0  0  0  0  0  0  0  0  0  0  0  0
   -7.4447   -0.2810  -25.0096 C   0  0  0  0  0  0  0  0  0  0  0  0
   -8.4108   -0.6463  -24.0796 C   0  0  0  0  0  0  0  0  0  0  0  0
   -8.5489    0.2918  -22.8448 N   0  0  1  0  0  4  0  0  0  0  0  0
   -9.7047    1.3187  -22.9950 C   0  0  0  0  0  0  0  0  0  0  0  0
   -9.4739    2.1795  -24.2010 C   0  0  0  0  0  0  0  0  0  0  0  0
   -8.6021    3.2681  -24.1310 C   0  0  0  0  0  0  0  0  0  0  0  0
   -8.3764    4.0569  -25.2523 C   0  0  0  0  0  0  0  0  0  0  0  0
   -9.0073    3.7627  -26.4579 C   0  0  0  0  0  0  0  0  0  0  0  0
   -9.8686    2.6747  -26.5225 C   0  0  0  0  0  0  0  0  0  0  0  0
  -10.6547    2.2869  -28.0273 Cl  0  0  0  0  0  0  0  0  0  0  0  0
  -10.1123    1.8848  -25.4086 C   0  0  0  0  0  0  0  0  0  0  0  0
  -10.7605    1.0126  -25.4797 H   0  0  0  0  0  0  0  0  0  0  0  0
   -8.8438    4.3670  -27.3433 H   0  0  0  0  0  0  0  0  0  0  0  0
   -7.7006    4.9050  -25.1861 H   0  0  0  0  0  0  0  0  0  0  0  0
   -8.0967    3.4845  -23.1887 H   0  0  0  0  0  0  0  0  0  0  0  0
  -10.6386    0.7579  -23.0875 H   0  0  0  0  0  0  0  0  0  0  0  0
   -9.7638    1.8970  -22.0711 H   0  0  0  0  0  0  0  0  0  0  0  0
   -8.5793   -0.3586  -21.5517 C   0  0  0  0  0  0  0  0  0  0  0  0
   -9.4477   -0.0925  -20.7602 O   0  0  0  0  0  0  0  0  0  0  0  0
   -7.4712   -1.3659  -21.2749 C   0  0  0  0  0  0  0  0  0  0  0  0
   -6.5735   -0.8463  -20.1864 C   0  0  0  0  0  0  0  0  0  0  0  0
   -6.8863   -1.0976  -18.8785 C   0  0  0  0  0  0  0  0  0  0  0  0
   -6.1308   -0.7326  -17.8123 N   0  0  0  0  0  0  0  0  0  0  0  0
   -5.0667   -0.0073  -18.0665 C   0  0  0  0  0  0  0  0  0  0  0  0
   -4.6834    0.4235  -19.3701 C   0  0  0  0  0  0  0  0  0  0  0  0
   -3.5973    1.3097  -19.5969 C   0  0  0  0  0  0  0  0  0  0  0  0
   -3.2253    1.6429  -20.8713 C   0  0  0  0  0  0  0  0  0  0  0  0
   -3.9280    1.1192  -21.9799 C   0  0  0  0  0  0  0  0  0  0  0  0
   -5.0092    0.2963  -21.7836 C   0  0  0  0  0  0  0  0  0  0  0  0
   -5.4324   -0.0491  -20.4729 C   0  0  0  0  0  0  0  0  0  0  0  0
   -5.5383   -0.0928  -22.6507 H   0  0  0  0  0  0  0  0  0  0  0  0
   -3.6030    1.3666  -22.9873 H   0  0  0  0  0  0  0  0  0  0  0  0
   -2.3741    2.2950  -21.0458 H   0  0  0  0  0  0  0  0  0  0  0  0
   -3.0860    1.7350  -18.7360 H   0  0  0  0  0  0  0  0  0  0  0  0
   -4.4469    0.2819  -17.2149 H   0  0  0  0  0  0  0  0  0  0  0  0
   -7.8050   -1.6427  -18.6574 H   0  0  0  0  0  0  0  0  0  0  0  0
   -6.9402   -1.6093  -22.1989 H   0  0  0  0  0  0  0  0  0  0  0  0
   -7.9617   -2.2817  -20.9215 H   0  0  0  0  0  0  0  0  0  0  0  0
   -7.6389    0.8230  -22.9204 H   0  0  0  0  0  0  0  0  0  0  0  0
   -6.8622    0.6209  -24.8345 H   0  0  0  0  0  0  0  0  0  0  0  0
   -6.5786   -0.7533  -26.9324 H   0  0  0  0  0  0  0  0  0  0  0  0
   -7.9638   -2.7704  -27.2370 H   0  0  0  0  0  0  0  0  0  0  0  0
   -9.9746   -2.9211  -22.6011 H   0  0  0  0  0  0  0  0  0  0  0  0
  -10.6819   -1.3174  -22.6831 H   0  0  0  0  0  0  0  0  0  0  0  0
  -12.3289   -3.0500  -23.4322 H   0  0  0  0  0  0  0  0  0  0  0  0
  -11.9271   -1.9882  -24.7807 H   0  0  0  0  0  0  0  0  0  0  0  0
  -10.9594   -4.8189  -24.1882 H   0  0  0  0  0  0  0  0  0  0  0  0
  -11.7023   -4.2442  -25.6770 H   0  0  0  0  0  0  0  0  0  0  0  0
   -7.2035   -4.6493  -25.4754 H   0  0  0  0  0  0  0  0  0  0  0  0
   -6.3589   -6.5169  -26.8680 H   0  0  0  0  0  0  0  0  0  0  0  0
   -8.0736   -6.6592  -27.6153 H   0  0  0  0  0  0  0  0  0  0  0  0
  1  2  2  0
  2  3  1  0
  3  4  2  0
  3  5  1  0
  5  6  1  0
  6  7  1  0
  7  8  1  0
  8  9  1  0
  9 10  2  0
 10 11  1  0
 11 12  2  0
 12 13  1  0
 13 14  2  0
 14 15  1  0
 15 16  1  0
 16 17  1  0
 17 18  2  0
 18 19  1  0
 19 20  2  0
 20 21  1  0
 21 22  1  0
 21 23  2  0
 23 24  1  0
 20 25  1  0
 19 26  1  0
 18 27  1  0
 16 28  1  0
 16 29  1  0
 15 30  1  0
 30 31  2  0
 30 32  1  0
 32 33  1  0
 33 34  2  0
 34 35  1  0
 35 36  2  0
 36 37  1  0
 37 38  2  0
 38 39  1  0
 39 40  2  0
 40 41  1  0
 41 42  2  0
 41 43  1  0
 40 44  1  0
 39 45  1  0
 38 46  1  0
 36 47  1  0
 34 48  1  0
 32 49  1  0
 32 50  1  0
 15 51  1  1
 13 52  1  0
 12 53  1  0
 11 54  1  0
  8 55  1  0
  8 56  1  0
  7 57  1  0
  7 58  1  0
  6 59  1  0
  6 60  1  0
  2 61  1  0
  1 62  1  0
  1 63  1  0
 10  5  1  0
 23 17  1  0
 42 33  1  0
 14  9  1  0
 42 37  1  0
M  CHG  1  15   1
M  END
>  <cnnaffinities>  (67) 
[6.19, 6.26227]

>  <score>  (67) 
6.19

>  <index>  (67) 
69

>  <Smiles>  (67) 
C(=C(C(=O)N1C(C(C(c2c1c(c(c(c2[N@@+](C(c1c(c(c(c(Cl)c1[H])[H])[H])[H])([H])[H])(C(=O)C(c1c(nc(c2c(c(c(c(c12)[H])[H])[H])[H])[H])[H])([H])[H])[H])[H])[H])[H])([H])[H])([H])[H])([H])[H])[H])([H])[H]

>  <h>  (67) 
<NA>

>  <Training>  (67) 
True

>  <Success>  (67) 
True

>  <enamine_searched>  (67) 
False

>  <enamine_id>  (67) 
nan

$$$$

     RDKit          3D

 52 54  0  0  0  0  0  0  0  0999 V2000
   -6.3907   -6.8864  -26.9893 C   0  0  0  0  0  0  0  0  0  0  0  0
   -5.9450   -5.7137  -26.0972 C   0  0  0  0  0  0  0  0  0  0  0  0
   -4.7441   -5.0030  -26.7442 C   0  0  0  0  0  0  0  0  0  0  0  0
   -4.3686   -4.1811  -26.1213 H   0  0  0  0  0  0  0  0  0  0  0  0
   -3.9193   -5.7090  -26.8983 H   0  0  0  0  0  0  0  0  0  0  0  0
   -5.0075   -4.5855  -27.7271 H   0  0  0  0  0  0  0  0  0  0  0  0
   -7.0552   -4.6830  -25.8234 C   0  0  0  0  0  0  0  0  0  0  0  0
   -8.2973   -5.0790  -24.9818 C   0  0  0  0  0  0  0  0  0  0  0  0
   -9.2646   -5.9522  -25.7986 C   0  0  0  0  0  0  0  0  0  0  0  0
   -9.5047   -5.4802  -26.7600 H   0  0  0  0  0  0  0  0  0  0  0  0
   -8.8705   -6.9522  -26.0033 H   0  0  0  0  0  0  0  0  0  0  0  0
  -10.2052   -6.0869  -25.2500 H   0  0  0  0  0  0  0  0  0  0  0  0
   -9.0408   -3.7718  -24.5769 C   0  0  0  0  0  0  0  0  0  0  0  0
   -8.8678   -3.3466  -23.1033 C   0  0  0  0  0  0  0  0  0  0  0  0
   -7.5269   -3.6161  -22.6076 N   0  0  0  0  0  0  0  0  0  0  0  0
   -6.7649   -2.7817  -21.8442 C   0  0  0  0  0  0  0  0  0  0  0  0
   -5.6032   -3.0626  -21.5739 O   0  0  0  0  0  0  0  0  0  0  0  0
   -7.4169   -1.4925  -21.3004 C   0  0  0  0  0  0  0  0  0  0  0  0
   -6.6006   -0.8491  -20.2126 C   0  0  0  0  0  0  0  0  0  0  0  0
   -6.9095   -1.0966  -18.9006 C   0  0  0  0  0  0  0  0  0  0  0  0
   -6.1672   -0.7028  -17.8314 N   0  0  0  0  0  0  0  0  0  0  0  0
   -5.0960    0.0138  -18.0791 C   0  0  0  0  0  0  0  0  0  0  0  0
   -4.7044    0.4358  -19.3830 C   0  0  0  0  0  0  0  0  0  0  0  0
   -3.6042    1.3080  -19.6123 C   0  0  0  0  0  0  0  0  0  0  0  0
   -3.2153    1.6173  -20.8882 C   0  0  0  0  0  0  0  0  0  0  0  0
   -3.9147    1.0831  -21.9921 C   0  0  0  0  0  0  0  0  0  0  0  0
   -5.0083    0.2744  -21.7974 C   0  0  0  0  0  0  0  0  0  0  0  0
   -5.4490   -0.0487  -20.4855 C   0  0  0  0  0  0  0  0  0  0  0  0
   -5.5327   -0.1427  -22.6498 H   0  0  0  0  0  0  0  0  0  0  0  0
   -3.5764    1.3145  -22.9997 H   0  0  0  0  0  0  0  0  0  0  0  0
   -2.3520    2.2553  -21.0625 H   0  0  0  0  0  0  0  0  0  0  0  0
   -3.0921    1.7335  -18.7490 H   0  0  0  0  0  0  0  0  0  0  0  0
   -4.4810    0.2881  -17.2165 H   0  0  0  0  0  0  0  0  0  0  0  0
   -7.7998   -1.6767  -18.6412 H   0  0  0  0  0  0  0  0  0  0  0  0
   -8.3951   -1.7517  -20.8748 H   0  0  0  0  0  0  0  0  0  0  0  0
   -7.6120   -0.7896  -22.1237 H   0  0  0  0  0  0  0  0  0  0  0  0
   -7.0162   -4.9752  -22.7733 C   0  0  0  0  0  0  0  0  0  0  0  0
   -7.9123   -5.8092  -23.6912 C   0  0  0  0  0  0  0  0  0  0  0  0
   -7.3844   -6.7418  -23.9303 H   0  0  0  0  0  0  0  0  0  0  0  0
   -8.8412   -6.0763  -23.1668 H   0  0  0  0  0  0  0  0  0  0  0  0
   -6.9467   -5.4499  -21.7852 H   0  0  0  0  0  0  0  0  0  0  0  0
   -5.9953   -4.8889  -23.1630 H   0  0  0  0  0  0  0  0  0  0  0  0
   -9.0630   -2.2804  -23.0041 H   0  0  0  0  0  0  0  0  0  0  0  0
   -9.6073   -3.8892  -22.4876 H   0  0  0  0  0  0  0  0  0  0  0  0
  -10.1147   -3.9180  -24.7388 H   0  0  0  0  0  0  0  0  0  0  0  0
   -8.7167   -2.9640  -25.2451 H   0  0  0  0  0  0  0  0  0  0  0  0
   -7.4312   -4.3144  -26.7946 H   0  0  0  0  0  0  0  0  0  0  0  0
   -6.5897   -3.8187  -25.3235 H   0  0  0  0  0  0  0  0  0  0  0  0
   -5.6034   -6.1177  -25.1313 H   0  0  0  0  0  0  0  0  0  0  0  0
   -5.5132   -7.3729  -27.4324 H   0  0  0  0  0  0  0  0  0  0  0  0
   -7.0351   -6.5479  -27.8145 H   0  0  0  0  0  0  0  0  0  0  0  0
   -6.9469   -7.6511  -26.4394 H   0  0  0  0  0  0  0  0  0  0  0  0
  1  2  1  0
  2  3  1  0
  3  4  1  0
  3  5  1  0
  3  6  1  0
  2  7  1  0
  7  8  1  0
  8  9  1  0
  9 10  1  0
  9 11  1  0
  9 12  1  0
  8 13  1  0
 13 14  1  0
 14 15  1  0
 15 16  1  0
 16 17  2  0
 16 18  1  0
 18 19  1  0
 19 20  2  0
 20 21  1  0
 21 22  2  0
 22 23  1  0
 23 24  2  0
 24 25  1  0
 25 26  2  0
 26 27  1  0
 27 28  2  0
 27 29  1  0
 26 30  1  0
 25 31  1  0
 24 32  1  0
 22 33  1  0
 20 34  1  0
 18 35  1  0
 18 36  1  0
 15 37  1  0
 37 38  1  0
 38 39  1  0
 38 40  1  0
 37 41  1  0
 37 42  1  0
 14 43  1  0
 14 44  1  0
 13 45  1  0
 13 46  1  0
  7 47  1  0
  7 48  1  0
  2 49  1  0
  1 50  1  0
  1 51  1  0
  1 52  1  0
 38  8  1  0
 28 19  1  0
 28 23  1  0
M  END
>  <cnnaffinities>  (68) 
[5.5273, 5.53402, 4.77411, 4.64528, 4.64705, 5.20556, 4.83305, 4.83348, 4.83883, 5.19504, 4.94863, 4.94869, 4.94864, 4.94868, 5.08574, 4.77804, 4.91596, 4.76561, 5.10877, 5.1095]

>  <score>  (68) 
5.5273

>  <index>  (68) 
70

>  <Smiles>  (68) 
C(C(C([H])([H])[H])(C(C1(C([H])([H])[H])C(C(N(C(=O)C(c2c(nc(c3c(c(c(c(c23)[H])[H])[H])[H])[H])[H])([H])[H])C(C1([H])[H])([H])[H])([H])[H])([H])[H])([H])[H])[H])([H])([H])[H]

>  <h>  (68) 
<NA>

>  <Training>  (68) 
True

>  <Success>  (68) 
True

>  <enamine_searched>  (68) 
False

>  <enamine_id>  (68) 
nan

$$$$

     RDKit          3D

 50 54  0  0  0  0  0  0  0  0999 V2000
  -10.4022   -0.9816  -23.4103 C   0  0  0  0  0  0  0  0  0  0  0  0
   -8.9934   -1.4124  -23.0112 C   0  0  1  0  0  0  0  0  0  0  0  0
   -8.3713   -0.5081  -21.9326 C   0  0  0  0  0  0  0  0  0  0  0  0
   -7.4095   -1.3818  -21.2807 N   0  0  0  0  0  0  0  0  0  0  0  0
   -6.5655   -0.9561  -20.2276 C   0  0  0  0  0  0  0  0  0  0  0  0
   -6.8571   -1.2911  -18.9292 C   0  0  0  0  0  0  0  0  0  0  0  0
   -6.1263   -0.8867  -17.8625 N   0  0  0  0  0  0  0  0  0  0  0  0
   -5.0812   -0.1280  -18.0898 C   0  0  0  0  0  0  0  0  0  0  0  0
   -4.6821    0.3156  -19.3857 C   0  0  0  0  0  0  0  0  0  0  0  0
   -3.5813    1.1905  -19.5905 C   0  0  0  0  0  0  0  0  0  0  0  0
   -3.2255    1.5759  -20.8549 C   0  0  0  0  0  0  0  0  0  0  0  0
   -3.9375    1.0900  -21.9762 C   0  0  0  0  0  0  0  0  0  0  0  0
   -5.0131    0.2517  -21.8034 C   0  0  0  0  0  0  0  0  0  0  0  0
   -5.4278   -0.1300  -20.4994 C   0  0  0  0  0  0  0  0  0  0  0  0
   -5.5628   -0.1320  -22.6569 H   0  0  0  0  0  0  0  0  0  0  0  0
   -3.6270    1.3768  -22.9770 H   0  0  0  0  0  0  0  0  0  0  0  0
   -2.3861    2.2496  -21.0125 H   0  0  0  0  0  0  0  0  0  0  0  0
   -3.0457    1.5503  -18.7157 H   0  0  0  0  0  0  0  0  0  0  0  0
   -4.4840    0.1599  -17.2228 H   0  0  0  0  0  0  0  0  0  0  0  0
   -7.7161   -1.9182  -18.6937 H   0  0  0  0  0  0  0  0  0  0  0  0
   -7.7083   -2.7193  -21.4483 C   0  0  0  0  0  0  0  0  0  0  0  0
   -7.1143   -3.6172  -20.8853 O   0  0  0  0  0  0  0  0  0  0  0  0
   -8.8756   -2.8692  -22.4397 C   0  0  1  0  0  0  0  0  0  0  0  0
  -10.1240   -3.2826  -21.6276 C   0  0  0  0  0  0  0  0  0  0  0  0
  -11.2417   -3.7142  -22.4552 N   0  0  0  0  0  0  0  0  0  0  0  0
  -12.6100   -3.5124  -22.0177 C   0  0  0  0  0  0  0  0  0  0  0  0
  -13.3080   -2.4543  -22.7688 C   0  0  0  0  0  0  0  0  0  0  0  0
  -13.8762   -1.6192  -23.3316 N   0  0  0  0  0  0  0  0  0  0  0  0
  -12.6427   -3.2738  -20.9520 H   0  0  0  0  0  0  0  0  0  0  0  0
  -13.1646   -4.4381  -22.1674 H   0  0  0  0  0  0  0  0  0  0  0  0
  -11.0457   -4.5682  -23.5158 C   0  0  0  0  0  0  0  0  0  0  0  0
  -11.9746   -5.1087  -24.0910 O   0  0  0  0  0  0  0  0  0  0  0  0
   -9.6201   -4.7620  -23.9408 C   0  0  0  0  0  0  0  0  0  0  0  0
   -9.3571   -5.7701  -24.8647 C   0  0  0  0  0  0  0  0  0  0  0  0
   -8.0796   -5.9603  -25.3569 C   0  0  0  0  0  0  0  0  0  0  0  0
   -7.0670   -5.1072  -24.9285 C   0  0  0  0  0  0  0  0  0  0  0  0
   -5.8256   -5.2780  -25.4174 F   0  0  0  0  0  0  0  0  0  0  0  0
   -7.2919   -4.1168  -23.9898 C   0  0  0  0  0  0  0  0  0  0  0  0
   -8.5871   -3.9405  -23.4739 C   0  0  0  0  0  0  0  0  0  0  0  0
   -6.4445   -3.5459  -23.6193 H   0  0  0  0  0  0  0  0  0  0  0  0
   -7.8593   -6.7655  -26.0471 H   0  0  0  0  0  0  0  0  0  0  0  0
  -10.1935   -6.3964  -25.1619 H   0  0  0  0  0  0  0  0  0  0  0  0
   -9.8346   -4.0896  -20.9526 H   0  0  0  0  0  0  0  0  0  0  0  0
  -10.4079   -2.4314  -21.0015 H   0  0  0  0  0  0  0  0  0  0  0  0
   -9.1306   -0.1571  -21.2166 H   0  0  0  0  0  0  0  0  0  0  0  0
   -7.8937    0.3863  -22.3469 H   0  0  0  0  0  0  0  0  0  0  0  0
   -8.3315   -1.3882  -23.8860 H   0  0  0  0  0  0  0  0  0  0  0  0
  -10.4146    0.0109  -23.8693 H   0  0  0  0  0  0  0  0  0  0  0  0
  -11.0577   -0.9341  -22.5332 H   0  0  0  0  0  0  0  0  0  0  0  0
  -10.8360   -1.7005  -24.1113 H   0  0  0  0  0  0  0  0  0  0  0  0
  1  2  1  0
  2  3  1  0
  3  4  1  0
  4  5  1  0
  5  6  2  0
  6  7  1  0
  7  8  2  0
  8  9  1  0
  9 10  2  0
 10 11  1  0
 11 12  2  0
 12 13  1  0
 13 14  2  0
 13 15  1  0
 12 16  1  0
 11 17  1  0
 10 18  1  0
  8 19  1  0
  6 20  1  0
  4 21  1  0
 21 22  2  0
 21 23  1  0
 23 24  1  1
 24 25  1  0
 25 26  1  0
 26 27  1  0
 27 28  3  0
 26 29  1  0
 26 30  1  0
 25 31  1  0
 31 32  2  0
 31 33  1  0
 33 34  2  0
 34 35  1  0
 35 36  2  0
 36 37  1  0
 36 38  1  0
 38 39  2  0
 38 40  1  0
 35 41  1  0
 34 42  1  0
 24 43  1  0
 24 44  1  0
  3 45  1  0
  3 46  1  0
  2 47  1  6
  1 48  1  0
  1 49  1  0
  1 50  1  0
 23  2  1  0
 39 33  1  0
 14  5  1  0
 39 23  1  0
 14  9  1  0
M  END
>  <cnnaffinities>  (69) 
[6.42648]

>  <score>  (69) 
6.42648

>  <index>  (69) 
71

>  <Smiles>  (69) 
C([C@]1(C(N(c2c(nc(c3c(c(c(c(c23)[H])[H])[H])[H])[H])[H])C(=O)[C@]21C(N(C(C#N)([H])[H])C(=O)c1c(c(c(F)c(c21)[H])[H])[H])([H])[H])([H])[H])[H])([H])([H])[H]

>  <h>  (69) 
<NA>

>  <Training>  (69) 
True

>  <Success>  (69) 
True

>  <enamine_searched>  (69) 
False

>  <enamine_id>  (69) 
nan

$$$$

     RDKit          3D

 41 44  0  0  0  0  0  0  0  0999 V2000
   -5.5210   -2.9811  -21.5340 O   0  0  0  0  0  0  0  0  0  0  0  0
   -6.5830   -2.5782  -21.9701 C   0  0  0  0  0  0  0  0  0  0  0  0
   -7.3821   -1.4554  -21.2900 C   0  0  0  0  0  0  0  0  0  0  0  0
   -6.5917   -0.8792  -20.1683 C   0  0  0  0  0  0  0  0  0  0  0  0
   -6.8746   -1.1890  -18.8660 C   0  0  0  0  0  0  0  0  0  0  0  0
   -6.1231   -0.8219  -17.7979 N   0  0  0  0  0  0  0  0  0  0  0  0
   -5.0590   -0.0949  -18.0498 C   0  0  0  0  0  0  0  0  0  0  0  0
   -4.6783    0.3416  -19.3489 C   0  0  0  0  0  0  0  0  0  0  0  0
   -3.5642    1.1896  -19.5639 C   0  0  0  0  0  0  0  0  0  0  0  0
   -3.2083    1.5701  -20.8327 C   0  0  0  0  0  0  0  0  0  0  0  0
   -3.9391    1.0968  -21.9443 C   0  0  0  0  0  0  0  0  0  0  0  0
   -5.0309    0.2886  -21.7623 C   0  0  0  0  0  0  0  0  0  0  0  0
   -5.4450   -0.0860  -20.4520 C   0  0  0  0  0  0  0  0  0  0  0  0
   -5.5731   -0.0871  -22.6255 H   0  0  0  0  0  0  0  0  0  0  0  0
   -3.6311    1.3766  -22.9489 H   0  0  0  0  0  0  0  0  0  0  0  0
   -2.3640    2.2320  -20.9957 H   0  0  0  0  0  0  0  0  0  0  0  0
   -3.0152    1.5413  -18.6963 H   0  0  0  0  0  0  0  0  0  0  0  0
   -4.4321    0.1803  -17.2003 H   0  0  0  0  0  0  0  0  0  0  0  0
   -7.7520   -1.7860  -18.6114 H   0  0  0  0  0  0  0  0  0  0  0  0
   -7.6344   -0.6822  -22.0288 H   0  0  0  0  0  0  0  0  0  0  0  0
   -8.3319   -1.8588  -20.9154 H   0  0  0  0  0  0  0  0  0  0  0  0
   -7.1134   -3.0772  -23.1327 N   0  0  0  0  0  0  0  0  0  0  0  0
   -8.5422   -3.0391  -23.4159 C   0  0  0  0  0  0  0  0  0  0  0  0
   -9.3232   -4.2404  -22.8925 C   0  0  0  0  0  0  0  0  0  0  0  0
   -8.8744   -5.5449  -23.5807 C   0  0  0  0  0  0  0  0  0  0  0  0
   -7.5671   -6.0933  -23.0439 C   0  0  0  0  0  0  0  0  0  0  0  0
   -7.3973   -7.6349  -22.2719 S   0  0  0  0  0  0  0  0  0  0  0  0
   -5.7210   -7.3890  -21.9964 C   0  0  0  0  0  0  0  0  0  0  0  0
   -5.3065   -6.1812  -22.4628 C   0  0  0  0  0  0  0  0  0  0  0  0
   -6.3660   -5.4444  -23.0973 C   0  0  0  0  0  0  0  0  0  0  0  0
   -6.2967   -4.0984  -23.7900 C   0  0  0  0  0  0  0  0  0  0  0  0
   -5.2665   -3.7348  -23.8380 H   0  0  0  0  0  0  0  0  0  0  0  0
   -6.6776   -4.1809  -24.8165 H   0  0  0  0  0  0  0  0  0  0  0  0
   -4.2977   -5.7940  -22.3392 H   0  0  0  0  0  0  0  0  0  0  0  0
   -5.1310   -8.2083  -21.5919 H   0  0  0  0  0  0  0  0  0  0  0  0
   -8.7375   -5.3214  -24.6544 H   0  0  0  0  0  0  0  0  0  0  0  0
   -9.6750   -6.2780  -23.5153 H   0  0  0  0  0  0  0  0  0  0  0  0
  -10.3848   -4.0568  -23.0967 H   0  0  0  0  0  0  0  0  0  0  0  0
   -9.2352   -4.3327  -21.8005 H   0  0  0  0  0  0  0  0  0  0  0  0
   -8.6744   -2.9881  -24.5025 H   0  0  0  0  0  0  0  0  0  0  0  0
   -8.9568   -2.1060  -23.0290 H   0  0  0  0  0  0  0  0  0  0  0  0
  1  2  2  0
  2  3  1  0
  3  4  1  0
  4  5  2  0
  5  6  1  0
  6  7  2  0
  7  8  1  0
  8  9  2  0
  9 10  1  0
 10 11  2  0
 11 12  1  0
 12 13  2  0
 12 14  1  0
 11 15  1  0
 10 16  1  0
  9 17  1  0
  7 18  1  0
  5 19  1  0
  3 20  1  0
  3 21  1  0
  2 22  1  0
 22 23  1  0
 23 24  1  0
 24 25  1  0
 25 26  1  0
 26 27  1  0
 27 28  1  0
 28 29  2  0
 29 30  1  0
 30 31  1  0
 31 32  1  0
 31 33  1  0
 29 34  1  0
 28 35  1  0
 25 36  1  0
 25 37  1  0
 24 38  1  0
 24 39  1  0
 23 40  1  0
 23 41  1  0
 13  4  1  0
 31 22  1  0
 13  8  1  0
 30 26  2  0
M  END
>  <cnnaffinities>  (70) 
[5.04409, 5.0863, 5.03836, 5.28019]

>  <score>  (70) 
5.04409

>  <index>  (70) 
72

>  <Smiles>  (70) 
O=C(C(c1c(nc(c2c(c(c(c(c12)[H])[H])[H])[H])[H])[H])([H])[H])N1C(C(C(c2sc(c(c2C1([H])[H])[H])[H])([H])[H])([H])[H])([H])[H]

>  <h>  (70) 
<NA>

>  <Training>  (70) 
True

>  <Success>  (70) 
True

>  <enamine_searched>  (70) 
False

>  <enamine_id>  (70) 
nan

$$$$

     RDKit          3D

 50 53  0  0  0  0  0  0  0  0999 V2000
   -5.6003   -3.0317  -21.5813 O   0  0  0  0  0  0  0  0  0  0  0  0
   -6.7560   -2.7548  -21.8596 C   0  0  0  0  0  0  0  0  0  0  0  0
   -7.4163   -1.4808  -21.2746 C   0  0  0  0  0  0  0  0  0  0  0  0
   -6.5872   -0.8323  -20.1944 C   0  0  0  0  0  0  0  0  0  0  0  0
   -6.8958   -1.0540  -18.8810 C   0  0  0  0  0  0  0  0  0  0  0  0
   -6.1938   -0.6023  -17.8154 N   0  0  0  0  0  0  0  0  0  0  0  0
   -5.1288    0.1109  -18.0753 C   0  0  0  0  0  0  0  0  0  0  0  0
   -4.7154    0.4990  -19.3808 C   0  0  0  0  0  0  0  0  0  0  0  0
   -3.5975    1.3472  -19.6190 C   0  0  0  0  0  0  0  0  0  0  0  0
   -3.1970    1.6346  -20.8968 C   0  0  0  0  0  0  0  0  0  0  0  0
   -3.9045    1.0904  -21.9925 C   0  0  0  0  0  0  0  0  0  0  0  0
   -5.0015    0.2888  -21.7903 C   0  0  0  0  0  0  0  0  0  0  0  0
   -5.4505   -0.0169  -20.4807 C   0  0  0  0  0  0  0  0  0  0  0  0
   -5.5274   -0.1334  -22.6402 H   0  0  0  0  0  0  0  0  0  0  0  0
   -3.5725    1.3103  -23.0027 H   0  0  0  0  0  0  0  0  0  0  0  0
   -2.3276    2.2648  -21.0847 H   0  0  0  0  0  0  0  0  0  0  0  0
   -3.0623    1.7657  -18.7666 H   0  0  0  0  0  0  0  0  0  0  0  0
   -4.5387    0.3914  -17.2016 H   0  0  0  0  0  0  0  0  0  0  0  0
   -7.7402   -1.6740  -18.5947 H   0  0  0  0  0  0  0  0  0  0  0  0
   -7.6157   -0.7502  -22.0691 H   0  0  0  0  0  0  0  0  0  0  0  0
   -8.3954   -1.7483  -20.8500 H   0  0  0  0  0  0  0  0  0  0  0  0
   -7.5204   -3.5835  -22.6633 N   0  0  0  0  0  0  0  0  0  0  0  0
   -8.6635   -3.1254  -23.4511 C   0  0  0  0  0  0  0  0  0  0  0  0
   -9.7345   -4.2013  -23.5634 C   0  0  0  0  0  0  0  0  0  0  0  0
   -9.1621   -5.5018  -24.1053 C   0  0  0  0  0  0  0  0  0  0  0  0
   -7.9806   -5.9308  -23.2466 C   0  0  0  0  0  0  0  0  0  0  0  0
   -6.9097   -4.8494  -23.1047 C   0  0  1  0  0  0  0  0  0  0  0  0
   -6.0418   -4.6949  -24.3710 C   0  0  0  0  0  0  0  0  0  0  0  0
   -5.2082   -5.9196  -24.6880 C   0  0  0  0  0  0  0  0  0  0  0  0
   -4.0473   -6.1889  -23.9580 C   0  0  0  0  0  0  0  0  0  0  0  0
   -3.2841   -7.3205  -24.2197 C   0  0  0  0  0  0  0  0  0  0  0  0
   -3.6684   -8.2102  -25.2185 C   0  0  0  0  0  0  0  0  0  0  0  0
   -4.8216   -7.9559  -25.9540 C   0  0  0  0  0  0  0  0  0  0  0  0
   -5.5835   -6.8226  -25.6851 C   0  0  0  0  0  0  0  0  0  0  0  0
   -6.4939   -6.6394  -26.2525 H   0  0  0  0  0  0  0  0  0  0  0  0
   -5.1343   -8.6441  -26.7344 H   0  0  0  0  0  0  0  0  0  0  0  0
   -3.0705   -9.0928  -25.4253 H   0  0  0  0  0  0  0  0  0  0  0  0
   -2.3832   -7.5102  -23.6424 H   0  0  0  0  0  0  0  0  0  0  0  0
   -3.7437   -5.5002  -23.1728 H   0  0  0  0  0  0  0  0  0  0  0  0
   -6.6861   -4.4569  -25.2247 H   0  0  0  0  0  0  0  0  0  0  0  0
   -5.3818   -3.8361  -24.2144 H   0  0  0  0  0  0  0  0  0  0  0  0
   -6.2399   -5.1491  -22.2980 H   0  0  0  0  0  0  0  0  0  0  0  0
   -8.3292   -6.1677  -22.2404 H   0  0  0  0  0  0  0  0  0  0  0  0
   -7.5362   -6.8516  -23.6369 H   0  0  0  0  0  0  0  0  0  0  0  0
   -9.9310   -6.2834  -24.1271 H   0  0  0  0  0  0  0  0  0  0  0  0
   -8.8396   -5.3755  -25.1466 H   0  0  0  0  0  0  0  0  0  0  0  0
  -10.1660   -4.3771  -22.5747 H   0  0  0  0  0  0  0  0  0  0  0  0
  -10.5512   -3.8471  -24.1990 H   0  0  0  0  0  0  0  0  0  0  0  0
   -9.0827   -2.2313  -22.9897 H   0  0  0  0  0  0  0  0  0  0  0  0
   -8.3537   -2.8304  -24.4652 H   0  0  0  0  0  0  0  0  0  0  0  0
  1  2  2  0
  2  3  1  0
  3  4  1  0
  4  5  2  0
  5  6  1  0
  6  7  2  0
  7  8  1  0
  8  9  2  0
  9 10  1  0
 10 11  2  0
 11 12  1  0
 12 13  2  0
 12 14  1  0
 11 15  1  0
 10 16  1  0
  9 17  1  0
  7 18  1  0
  5 19  1  0
  3 20  1  0
  3 21  1  0
  2 22  1  0
 22 23  1  0
 23 24  1  0
 24 25  1  0
 25 26  1  0
 26 27  1  0
 27 28  1  0
 28 29  1  0
 29 30  2  0
 30 31  1  0
 31 32  2  0
 32 33  1  0
 33 34  2  0
 34 35  1  0
 33 36  1  0
 32 37  1  0
 31 38  1  0
 30 39  1  0
 28 40  1  0
 28 41  1  0
 27 42  1  1
 26 43  1  0
 26 44  1  0
 25 45  1  0
 25 46  1  0
 24 47  1  0
 24 48  1  0
 23 49  1  0
 23 50  1  0
 13  4  1  0
 27 22  1  0
 34 29  1  0
 13  8  1  0
M  END
>  <cnnaffinities>  (71) 
[5.58024]

>  <score>  (71) 
5.58024

>  <index>  (71) 
73

>  <Smiles>  (71) 
O=C(C(c1c(nc(c2c(c(c(c(c12)[H])[H])[H])[H])[H])[H])([H])[H])N1C(C(C(C([C@]1(C(c1c(c(c(c(c1[H])[H])[H])[H])[H])([H])[H])[H])([H])[H])([H])[H])([H])[H])([H])[H]

>  <h>  (71) 
<NA>

>  <Training>  (71) 
True

>  <Success>  (71) 
True

>  <enamine_searched>  (71) 
False

>  <enamine_id>  (71) 
nan

$$$$

     RDKit          3D

 43 47  0  0  0  0  0  0  0  0999 V2000
   -9.4140   -0.4334  -21.0049 O   0  0  0  0  0  0  0  0  0  0  0  0
   -8.7418   -1.3596  -21.3949 C   0  0  0  0  0  0  0  0  0  0  0  0
   -9.1394   -2.4514  -22.1161 N   0  0  0  0  0  0  0  0  0  0  0  0
   -8.0413   -3.1510  -22.7403 C   0  0  1  0  0  0  0  0  0  0  0  0
   -8.1050   -4.6921  -22.7141 C   0  0  0  0  0  0  0  0  0  0  0  0
   -8.2247   -4.7237  -24.2740 C   0  0  2  0  0  0  0  0  0  0  0  0
   -7.1779   -5.5214  -24.9893 C   0  0  0  0  0  0  0  0  0  0  0  0
   -5.8218   -5.2778  -24.7416 C   0  0  0  0  0  0  0  0  0  0  0  0
   -4.8301   -6.0088  -25.3862 C   0  0  0  0  0  0  0  0  0  0  0  0
   -5.1792   -7.0051  -26.2976 C   0  0  0  0  0  0  0  0  0  0  0  0
   -6.5194   -7.2606  -26.5610 C   0  0  0  0  0  0  0  0  0  0  0  0
   -7.4991   -6.5263  -25.9031 C   0  0  0  0  0  0  0  0  0  0  0  0
   -9.1676   -6.9169  -26.2537 Cl  0  0  0  0  0  0  0  0  0  0  0  0
   -6.8266   -8.0367  -27.2563 H   0  0  0  0  0  0  0  0  0  0  0  0
   -4.4080   -7.5855  -26.7985 H   0  0  0  0  0  0  0  0  0  0  0  0
   -3.7852   -5.7971  -25.1747 H   0  0  0  0  0  0  0  0  0  0  0  0
   -5.5524   -4.4971  -24.0264 H   0  0  0  0  0  0  0  0  0  0  0  0
   -8.0340   -3.1710  -24.2964 C   0  0  0  0  0  0  0  0  0  0  0  0
   -8.8526   -2.6018  -24.7501 H   0  0  0  0  0  0  0  0  0  0  0  0
   -7.0962   -2.8307  -24.7550 H   0  0  0  0  0  0  0  0  0  0  0  0
   -9.2229   -5.0244  -24.6057 H   0  0  0  0  0  0  0  0  0  0  0  0
   -8.9672   -5.0731  -22.1599 H   0  0  0  0  0  0  0  0  0  0  0  0
   -7.1928   -5.1547  -22.3180 H   0  0  0  0  0  0  0  0  0  0  0  0
   -6.8413   -2.5184  -22.0597 C   0  0  0  0  0  0  0  0  0  0  0  0
   -5.6784   -2.8132  -22.2290 O   0  0  0  0  0  0  0  0  0  0  0  0
   -7.3416   -1.5040  -21.2350 N   0  0  0  0  0  0  0  0  0  0  0  0
   -6.5989   -0.8606  -20.2035 C   0  0  0  0  0  0  0  0  0  0  0  0
   -6.9376   -1.0868  -18.8915 C   0  0  0  0  0  0  0  0  0  0  0  0
   -6.1985   -0.6596  -17.8426 N   0  0  0  0  0  0  0  0  0  0  0  0
   -5.1309    0.0542  -18.1035 C   0  0  0  0  0  0  0  0  0  0  0  0
   -4.7329    0.4635  -19.4100 C   0  0  0  0  0  0  0  0  0  0  0  0
   -3.6228    1.3281  -19.6312 C   0  0  0  0  0  0  0  0  0  0  0  0
   -3.2412    1.6545  -20.9030 C   0  0  0  0  0  0  0  0  0  0  0  0
   -3.9641    1.1469  -22.0062 C   0  0  0  0  0  0  0  0  0  0  0  0
   -5.0579    0.3384  -21.8195 C   0  0  0  0  0  0  0  0  0  0  0  0
   -5.4741   -0.0251  -20.5059 C   0  0  0  0  0  0  0  0  0  0  0  0
   -5.6005   -0.0479  -22.6767 H   0  0  0  0  0  0  0  0  0  0  0  0
   -3.6417    1.3980  -23.0114 H   0  0  0  0  0  0  0  0  0  0  0  0
   -2.3777    2.2931  -21.0785 H   0  0  0  0  0  0  0  0  0  0  0  0
   -3.0976    1.7299  -18.7698 H   0  0  0  0  0  0  0  0  0  0  0  0
   -4.5248    0.3386  -17.2436 H   0  0  0  0  0  0  0  0  0  0  0  0
   -7.8087   -1.6879  -18.6341 H   0  0  0  0  0  0  0  0  0  0  0  0
  -10.1041   -2.5970  -22.3682 H   0  0  0  0  0  0  0  0  0  0  0  0
  1  2  2  0
  2  3  1  0
  4  3  1  6
  4  5  1  0
  5  6  1  0
  6  7  1  0
  7  8  2  0
  8  9  1  0
  9 10  2  0
 10 11  1  0
 11 12  2  0
 12 13  1  0
 11 14  1  0
 10 15  1  0
  9 16  1  0
  8 17  1  0
  6 18  1  0
 18 19  1  0
 18 20  1  0
  6 21  1  1
  5 22  1  0
  5 23  1  0
  4 24  1  0
 24 25  2  0
 24 26  1  0
 26 27  1  0
 27 28  2  0
 28 29  1  0
 29 30  2  0
 30 31  1  0
 31 32  2  0
 32 33  1  0
 33 34  2  0
 34 35  1  0
 35 36  2  0
 35 37  1  0
 34 38  1  0
 33 39  1  0
 32 40  1  0
 30 41  1  0
 28 42  1  0
  3 43  1  0
 26  2  1  0
 36 27  1  0
 18  4  1  0
 36 31  1  0
 12  7  1  0
M  END
>  <cnnaffinities>  (72) 
[5.87741]

>  <score>  (72) 
5.87741

>  <index>  (72) 
74

>  <Smiles>  (72) 
O=C1N([C@]2(C([C@](c3c(c(c(c(c3Cl)[H])[H])[H])[H])(C2([H])[H])[H])([H])[H])C(=O)N1c1c(nc(c2c(c(c(c(c12)[H])[H])[H])[H])[H])[H])[H]

>  <h>  (72) 
<NA>

>  <Training>  (72) 
True

>  <Success>  (72) 
True

>  <enamine_searched>  (72) 
False

>  <enamine_id>  (72) 
nan

$$$$

     RDKit          3D

 66 71  0  0  0  0  0  0  0  0999 V2000
   -5.2242   -4.0016  -19.4371 C   0  0  0  0  0  0  0  0  0  0  0  0
   -6.3014   -4.6545  -20.1490 N   0  0  0  0  0  0  0  0  0  0  0  0
   -6.2243   -5.8950  -20.6829 C   0  0  0  0  0  0  0  0  0  0  0  0
   -5.2775   -6.6440  -20.5149 O   0  0  0  0  0  0  0  0  0  0  0  0
   -7.4686   -6.2840  -21.4956 C   0  0  0  0  0  0  0  0  0  0  0  0
   -7.7637   -5.3445  -22.5658 N   0  0  0  0  0  0  0  0  0  0  0  0
   -8.6596   -4.2062  -22.4114 C   0  0  0  0  0  0  0  0  0  0  0  0
   -8.0782   -2.9095  -23.0464 C   0  0  2  0  0  0  0  0  0  0  0  0
   -6.8976   -2.3782  -22.2002 C   0  0  0  0  0  0  0  0  0  0  0  0
   -5.7431   -2.7667  -22.2263 O   0  0  0  0  0  0  0  0  0  0  0  0
   -7.3658   -1.4045  -21.3441 N   0  0  0  0  0  0  0  0  0  0  0  0
   -6.5888   -0.9169  -20.2740 C   0  0  0  0  0  0  0  0  0  0  0  0
   -6.9541   -1.1840  -18.9753 C   0  0  0  0  0  0  0  0  0  0  0  0
   -6.1981   -0.8781  -17.8974 N   0  0  0  0  0  0  0  0  0  0  0  0
   -5.0791   -0.2184  -18.1079 C   0  0  0  0  0  0  0  0  0  0  0  0
   -4.6586    0.2395  -19.3902 C   0  0  0  0  0  0  0  0  0  0  0  0
   -3.5428    1.1045  -19.5491 C   0  0  0  0  0  0  0  0  0  0  0  0
   -3.1892    1.5708  -20.7869 C   0  0  0  0  0  0  0  0  0  0  0  0
   -3.9117    1.1631  -21.9280 C   0  0  0  0  0  0  0  0  0  0  0  0
   -4.9922    0.3263  -21.8041 C   0  0  0  0  0  0  0  0  0  0  0  0
   -5.4142   -0.1334  -20.5217 C   0  0  0  0  0  0  0  0  0  0  0  0
   -5.5297    0.0091  -22.6913 H   0  0  0  0  0  0  0  0  0  0  0  0
   -3.6069    1.5218  -22.9068 H   0  0  0  0  0  0  0  0  0  0  0  0
   -2.3589    2.2625  -20.9005 H   0  0  0  0  0  0  0  0  0  0  0  0
   -3.0021    1.4165  -18.6595 H   0  0  0  0  0  0  0  0  0  0  0  0
   -4.4489   -0.0222  -17.2418 H   0  0  0  0  0  0  0  0  0  0  0  0
   -7.8646   -1.7438  -18.7581 H   0  0  0  0  0  0  0  0  0  0  0  0
   -8.7955   -1.1671  -21.4863 C   0  0  0  0  0  0  0  0  0  0  0  0
   -9.0439   -1.7001  -22.9017 C   0  0  2  0  0  0  0  0  0  0  0  0
  -10.5133   -1.9293  -23.2644 C   0  0  0  0  0  0  0  0  0  0  0  0
  -11.2852   -0.7108  -23.4113 N   0  0  0  0  0  0  0  0  0  0  0  0
  -11.0674    0.1378  -24.4603 C   0  0  0  0  0  0  0  0  0  0  0  0
  -11.7763    1.3631  -24.5451 C   0  0  0  0  0  0  0  0  0  0  0  0
  -11.6461    2.1762  -25.5717 N   0  0  0  0  0  0  0  0  0  0  0  0
  -10.7892    1.7951  -26.5357 C   0  0  0  0  0  0  0  0  0  0  0  0
  -10.0814    0.6100  -26.4506 C   0  0  0  0  0  0  0  0  0  0  0  0
  -10.2195   -0.2328  -25.4165 N   0  0  0  0  0  0  0  0  0  0  0  0
   -9.3807    0.3118  -27.2325 H   0  0  0  0  0  0  0  0  0  0  0  0
  -10.6805    2.4570  -27.3885 H   0  0  0  0  0  0  0  0  0  0  0  0
  -12.4857    1.6383  -23.7662 H   0  0  0  0  0  0  0  0  0  0  0  0
  -11.6348   -0.2831  -22.5669 H   0  0  0  0  0  0  0  0  0  0  0  0
  -10.5544   -2.4714  -24.2128 H   0  0  0  0  0  0  0  0  0  0  0  0
  -11.0108   -2.5456  -22.5072 H   0  0  0  0  0  0  0  0  0  0  0  0
   -8.6400   -0.9502  -23.5858 H   0  0  0  0  0  0  0  0  0  0  0  0
   -9.3904   -1.7141  -20.7336 H   0  0  0  0  0  0  0  0  0  0  0  0
   -9.0047   -0.0956  -21.3998 H   0  0  0  0  0  0  0  0  0  0  0  0
   -7.6161   -3.2221  -24.4546 C   0  0  0  0  0  0  0  0  0  0  0  0
   -7.4477   -2.2091  -25.4171 C   0  0  0  0  0  0  0  0  0  0  0  0
   -6.8727   -2.5097  -26.6398 C   0  0  0  0  0  0  0  0  0  0  0  0
   -6.6218   -1.2398  -27.8083 Cl  0  0  0  0  0  0  0  0  0  0  0  0
   -6.4674   -3.8016  -26.9680 C   0  0  0  0  0  0  0  0  0  0  0  0
   -6.6571   -4.8027  -26.0389 C   0  0  0  0  0  0  0  0  0  0  0  0
   -7.2129   -4.5231  -24.7915 C   0  0  0  0  0  0  0  0  0  0  0  0
   -7.2567   -5.6542  -23.8024 C   0  0  0  0  0  0  0  0  0  0  0  0
   -6.8255   -6.7657  -24.0699 O   0  0  0  0  0  0  0  0  0  0  0  0
   -6.3610   -5.8254  -26.2441 H   0  0  0  0  0  0  0  0  0  0  0  0
   -5.9950   -4.0013  -27.9248 H   0  0  0  0  0  0  0  0  0  0  0  0
   -7.7555   -1.1817  -25.2469 H   0  0  0  0  0  0  0  0  0  0  0  0
   -9.6235   -4.4362  -22.8870 H   0  0  0  0  0  0  0  0  0  0  0  0
   -8.8714   -4.0353  -21.3536 H   0  0  0  0  0  0  0  0  0  0  0  0
   -8.3370   -6.3775  -20.8395 H   0  0  0  0  0  0  0  0  0  0  0  0
   -7.2734   -7.2586  -21.9374 H   0  0  0  0  0  0  0  0  0  0  0  0
   -7.0181   -4.0550  -20.5142 H   0  0  0  0  0  0  0  0  0  0  0  0
   -4.7151   -3.2839  -20.0941 H   0  0  0  0  0  0  0  0  0  0  0  0
   -5.6246   -3.4657  -18.5640 H   0  0  0  0  0  0  0  0  0  0  0  0
   -4.5384   -4.7815  -19.1151 H   0  0  0  0  0  0  0  0  0  0  0  0
  1  2  1  0
  2  3  1  0
  3  4  2  0
  3  5  1  0
  5  6  1  0
  6  7  1  0
  8  7  1  1
  8  9  1  0
  9 10  2  0
  9 11  1  0
 11 12  1  0
 12 13  2  0
 13 14  1  0
 14 15  2  0
 15 16  1  0
 16 17  2  0
 17 18  1  0
 18 19  2  0
 19 20  1  0
 20 21  2  0
 20 22  1  0
 19 23  1  0
 18 24  1  0
 17 25  1  0
 15 26  1  0
 13 27  1  0
 11 28  1  0
 28 29  1  0
 29 30  1  0
 30 31  1  0
 31 32  1  0
 32 33  2  0
 33 34  1  0
 34 35  2  0
 35 36  1  0
 36 37  2  0
 36 38  1  0
 35 39  1  0
 33 40  1  0
 31 41  1  0
 30 42  1  0
 30 43  1  0
 29 44  1  6
 28 45  1  0
 28 46  1  0
  8 47  1  0
 47 48  2  0
 48 49  1  0
 49 50  1  0
 49 51  2  0
 51 52  1  0
 52 53  2  0
 53 54  1  0
 54 55  2  0
 52 56  1  0
 51 57  1  0
 48 58  1  0
  7 59  1  0
  7 60  1  0
  5 61  1  0
  5 62  1  0
  2 63  1  0
  1 64  1  0
  1 65  1  0
  1 66  1  0
 54  6  1  0
 29  8  1  0
 37 32  1  0
 53 47  1  0
 21 12  1  0
 21 16  1  0
M  END
>  <cnnaffinities>  (73) 
[6.10104, 6.68537]

>  <score>  (73) 
6.10104

>  <index>  (73) 
75

>  <Smiles>  (73) 
C(N(C(=O)C(N1C([C@@]2(C(=O)N(c3c(nc(c4c(c(c(c(c34)[H])[H])[H])[H])[H])[H])C([C@@]2(C(N(c2c(nc(c(n2)[H])[H])[H])[H])([H])[H])[H])([H])[H])c2c(c(Cl)c(c(c2C1=O)[H])[H])[H])([H])[H])([H])[H])[H])([H])([H])[H]

>  <h>  (73) 
<NA>

>  <Training>  (73) 
True

>  <Success>  (73) 
True

>  <enamine_searched>  (73) 
False

>  <enamine_id>  (73) 
nan

$$$$

     RDKit          3D

 66 71  0  0  0  0  0  0  0  0999 V2000
   -8.1957   -3.4726  -24.1046 C   0  0  0  0  0  0  0  0  0  0  0  0
   -8.4708   -2.7359  -22.7869 C   0  0  1  0  0  0  0  0  0  0  0  0
   -7.1858   -2.5245  -21.9553 C   0  0  0  0  0  0  0  0  0  0  0  0
   -7.4586   -1.3100  -21.2121 N   0  0  0  0  0  0  0  0  0  0  0  0
   -6.6329   -0.7966  -20.1829 C   0  0  0  0  0  0  0  0  0  0  0  0
   -6.9419   -1.0690  -18.8770 C   0  0  0  0  0  0  0  0  0  0  0  0
   -6.1772   -0.6872  -17.8290 N   0  0  0  0  0  0  0  0  0  0  0  0
   -5.1109    0.0351  -18.0830 C   0  0  0  0  0  0  0  0  0  0  0  0
   -4.7218    0.4707  -19.3904 C   0  0  0  0  0  0  0  0  0  0  0  0
   -3.6239    1.3487  -19.6318 C   0  0  0  0  0  0  0  0  0  0  0  0
   -3.2523    1.6723  -20.9116 C   0  0  0  0  0  0  0  0  0  0  0  0
   -3.9549    1.1381  -22.0129 C   0  0  0  0  0  0  0  0  0  0  0  0
   -5.0398    0.3152  -21.8059 C   0  0  0  0  0  0  0  0  0  0  0  0
   -5.4778   -0.0075  -20.4871 C   0  0  0  0  0  0  0  0  0  0  0  0
   -5.5650   -0.0959  -22.6628 H   0  0  0  0  0  0  0  0  0  0  0  0
   -3.6380    1.3857  -23.0225 H   0  0  0  0  0  0  0  0  0  0  0  0
   -2.4046    2.3302  -21.0913 H   0  0  0  0  0  0  0  0  0  0  0  0
   -3.1003    1.7693  -18.7781 H   0  0  0  0  0  0  0  0  0  0  0  0
   -4.4991    0.3090  -17.2210 H   0  0  0  0  0  0  0  0  0  0  0  0
   -7.8234   -1.6619  -18.6349 H   0  0  0  0  0  0  0  0  0  0  0  0
   -8.5401   -0.5950  -21.6557 C   0  0  0  0  0  0  0  0  0  0  0  0
   -8.9242    0.4489  -21.1584 O   0  0  0  0  0  0  0  0  0  0  0  0
   -9.1391   -1.3247  -22.8806 C   0  0  1  0  0  0  0  0  0  0  0  0
   -8.7140   -0.5880  -24.1726 C   0  0  0  0  0  0  0  0  0  0  0  0
   -9.3152    0.7274  -24.2652 N   0  0  0  0  0  0  0  0  0  0  0  0
   -8.5142    1.7850  -24.8565 C   0  0  0  0  0  0  0  0  0  0  0  0
   -7.5484    2.4135  -23.8583 C   0  0  0  0  0  0  0  0  0  0  0  0
   -8.2702    3.2129  -22.8204 N   0  0  0  0  0  4  0  0  0  0  0  0
   -7.4934    3.3102  -21.5471 C   0  0  0  0  0  0  0  0  0  0  0  0
   -6.3371    4.2960  -21.6098 C   0  0  0  0  0  0  0  0  0  0  0  0
   -6.8055    5.5883  -21.9367 O   0  0  0  0  0  0  0  0  0  0  0  0
   -7.4338    5.5829  -23.2018 C   0  0  0  0  0  0  0  0  0  0  0  0
   -8.6363    4.6359  -23.2434 C   0  0  0  0  0  0  0  0  0  0  0  0
   -9.3960    4.9933  -22.5439 H   0  0  0  0  0  0  0  0  0  0  0  0
   -9.0598    4.6074  -24.2498 H   0  0  0  0  0  0  0  0  0  0  0  0
   -6.7070    5.3026  -23.9798 H   0  0  0  0  0  0  0  0  0  0  0  0
   -7.7586    6.6097  -23.3822 H   0  0  0  0  0  0  0  0  0  0  0  0
   -5.8688    4.3834  -20.6254 H   0  0  0  0  0  0  0  0  0  0  0  0
   -5.5774    3.9542  -22.3348 H   0  0  0  0  0  0  0  0  0  0  0  0
   -7.1611    2.3076  -21.2677 H   0  0  0  0  0  0  0  0  0  0  0  0
   -8.2080    3.6765  -20.8130 H   0  0  0  0  0  0  0  0  0  0  0  0
   -9.1362    2.6934  -22.5727 H   0  0  0  0  0  0  0  0  0  0  0  0
   -6.9828    1.6395  -23.3260 H   0  0  0  0  0  0  0  0  0  0  0  0
   -6.8316    3.0544  -24.3767 H   0  0  0  0  0  0  0  0  0  0  0  0
   -7.9336    1.3780  -25.6925 H   0  0  0  0  0  0  0  0  0  0  0  0
   -9.2118    2.5320  -25.2331 H   0  0  0  0  0  0  0  0  0  0  0  0
  -10.6624    0.8877  -24.0984 C   0  0  0  0  0  0  0  0  0  0  0  0
  -11.2649    1.8918  -24.4593 O   0  0  0  0  0  0  0  0  0  0  0  0
  -11.3683   -0.2361  -23.3924 C   0  0  0  0  0  0  0  0  0  0  0  0
  -12.7560   -0.1735  -23.2904 C   0  0  0  0  0  0  0  0  0  0  0  0
  -13.4445   -1.1165  -22.5537 C   0  0  0  0  0  0  0  0  0  0  0  0
  -12.7274   -2.1155  -21.8973 C   0  0  0  0  0  0  0  0  0  0  0  0
  -13.5813   -3.2477  -20.8879 Cl  0  0  0  0  0  0  0  0  0  0  0  0
  -11.3518   -2.1998  -21.9977 C   0  0  0  0  0  0  0  0  0  0  0  0
  -10.6532   -1.2848  -22.7941 C   0  0  0  0  0  0  0  0  0  0  0  0
  -10.8379   -2.9582  -21.4169 H   0  0  0  0  0  0  0  0  0  0  0  0
  -14.5207   -1.0686  -22.4514 H   0  0  0  0  0  0  0  0  0  0  0  0
  -13.2576    0.6505  -23.7859 H   0  0  0  0  0  0  0  0  0  0  0  0
   -7.6253   -0.4597  -24.1810 H   0  0  0  0  0  0  0  0  0  0  0  0
   -9.0080   -1.2077  -25.0357 H   0  0  0  0  0  0  0  0  0  0  0  0
   -6.9784   -3.3608  -21.2737 H   0  0  0  0  0  0  0  0  0  0  0  0
   -6.3012   -2.4053  -22.6015 H   0  0  0  0  0  0  0  0  0  0  0  0
   -9.1454   -3.3496  -22.1855 H   0  0  0  0  0  0  0  0  0  0  0  0
   -9.1020   -3.5784  -24.7126 H   0  0  0  0  0  0  0  0  0  0  0  0
   -7.4475   -2.9411  -24.7079 H   0  0  0  0  0  0  0  0  0  0  0  0
   -7.8018   -4.4790  -23.9154 H   0  0  0  0  0  0  0  0  0  0  0  0
  1  2  1  0
  2  3  1  0
  3  4  1  0
  4  5  1  0
  5  6  2  0
  6  7  1  0
  7  8  2  0
  8  9  1  0
  9 10  2  0
 10 11  1  0
 11 12  2  0
 12 13  1  0
 13 14  2  0
 13 15  1  0
 12 16  1  0
 11 17  1  0
 10 18  1  0
  8 19  1  0
  6 20  1  0
  4 21  1  0
 21 22  2  0
 21 23  1  0
 23 24  1  6
 24 25  1  0
 25 26  1  0
 26 27  1  0
 27 28  1  0
 28 29  1  0
 29 30  1  0
 30 31  1  0
 31 32  1  0
 32 33  1  0
 33 34  1  0
 33 35  1  0
 32 36  1  0
 32 37  1  0
 30 38  1  0
 30 39  1  0
 29 40  1  0
 29 41  1  0
 28 42  1  0
 27 43  1  0
 27 44  1  0
 26 45  1  0
 26 46  1  0
 25 47  1  0
 47 48  2  0
 47 49  1  0
 49 50  2  0
 50 51  1  0
 51 52  2  0
 52 53  1  0
 52 54  1  0
 54 55  2  0
 54 56  1  0
 51 57  1  0
 50 58  1  0
 24 59  1  0
 24 60  1  0
  3 61  1  0
  3 62  1  0
  2 63  1  1
  1 64  1  0
  1 65  1  0
  1 66  1  0
 23  2  1  0
 33 28  1  0
 55 49  1  0
 14  5  1  0
 55 23  1  0
 14  9  1  0
M  CHG  1  28   1
M  END
>  <cnnaffinities>  (74) 
[6.31143]

>  <score>  (74) 
6.31143

>  <index>  (74) 
76

>  <Smiles>  (74) 
C([C@]1(C(N(c2c(nc(c3c(c(c(c(c23)[H])[H])[H])[H])[H])[H])C(=O)[C@]21C(N(C(C([N+]1(C(C(OC(C1([H])[H])([H])[H])([H])[H])([H])[H])[H])([H])[H])([H])[H])C(=O)c1c(c(c(Cl)c(c21)[H])[H])[H])([H])[H])([H])[H])[H])([H])([H])[H]

>  <h>  (74) 
<NA>

>  <Training>  (74) 
True

>  <Success>  (74) 
True

>  <enamine_searched>  (74) 
False

>  <enamine_id>  (74) 
nan

$$$$

     RDKit          3D

 55 60  0  0  0  0  0  0  0  0999 V2000
  -10.4399   -1.0280  -23.3937 C   0  0  0  0  0  0  0  0  0  0  0  0
   -9.0093   -1.4158  -23.0251 C   0  0  1  0  0  0  0  0  0  0  0  0
   -8.3981   -0.5105  -21.9388 C   0  0  0  0  0  0  0  0  0  0  0  0
   -7.4134   -1.3780  -21.3051 N   0  0  0  0  0  0  0  0  0  0  0  0
   -6.5789   -0.9635  -20.2464 C   0  0  0  0  0  0  0  0  0  0  0  0
   -6.8681   -1.3252  -18.9553 C   0  0  0  0  0  0  0  0  0  0  0  0
   -6.1155   -0.9690  -17.8893 N   0  0  0  0  0  0  0  0  0  0  0  0
   -5.0684   -0.2116  -18.1105 C   0  0  0  0  0  0  0  0  0  0  0  0
   -4.6881    0.2704  -19.3957 C   0  0  0  0  0  0  0  0  0  0  0  0
   -3.5993    1.1587  -19.5851 C   0  0  0  0  0  0  0  0  0  0  0  0
   -3.2457    1.5566  -20.8446 C   0  0  0  0  0  0  0  0  0  0  0  0
   -3.9522    1.0796  -21.9725 C   0  0  0  0  0  0  0  0  0  0  0  0
   -5.0303    0.2441  -21.8134 C   0  0  0  0  0  0  0  0  0  0  0  0
   -5.4402   -0.1468  -20.5122 C   0  0  0  0  0  0  0  0  0  0  0  0
   -5.5794   -0.1295  -22.6721 H   0  0  0  0  0  0  0  0  0  0  0  0
   -3.6386    1.3758  -22.9681 H   0  0  0  0  0  0  0  0  0  0  0  0
   -2.4135    2.2391  -20.9910 H   0  0  0  0  0  0  0  0  0  0  0  0
   -3.0751    1.5202  -18.7054 H   0  0  0  0  0  0  0  0  0  0  0  0
   -4.4558    0.0473  -17.2482 H   0  0  0  0  0  0  0  0  0  0  0  0
   -7.7455   -1.9312  -18.7347 H   0  0  0  0  0  0  0  0  0  0  0  0
   -7.6819   -2.7196  -21.4839 C   0  0  0  0  0  0  0  0  0  0  0  0
   -7.1029   -3.6188  -20.9101 O   0  0  0  0  0  0  0  0  0  0  0  0
   -8.8382   -2.8742  -22.4723 C   0  0  1  0  0  0  0  0  0  0  0  0
  -10.0654   -3.3400  -21.6513 C   0  0  0  0  0  0  0  0  0  0  0  0
  -11.1650   -3.7932  -22.4798 N   0  0  0  0  0  0  0  0  0  0  0  0
  -12.5365   -3.7034  -22.0031 C   0  0  0  0  0  0  0  0  0  0  0  0
  -13.3520   -2.5763  -22.5410 C   0  0  0  0  0  0  0  0  0  0  0  0
  -14.0023   -2.4966  -23.7235 C   0  0  0  0  0  0  0  0  0  0  0  0
  -14.7529   -1.3553  -23.7085 O   0  0  0  0  0  0  0  0  0  0  0  0
  -14.5011   -0.8035  -22.5070 C   0  0  0  0  0  0  0  0  0  0  0  0
  -13.6754   -1.4682  -21.7687 N   0  0  0  0  0  0  0  0  0  0  0  0
  -15.0025    0.1290  -22.2842 H   0  0  0  0  0  0  0  0  0  0  0  0
  -14.0822   -3.1396  -24.5904 H   0  0  0  0  0  0  0  0  0  0  0  0
  -12.5494   -3.6222  -20.9150 H   0  0  0  0  0  0  0  0  0  0  0  0
  -13.0370   -4.6194  -22.3207 H   0  0  0  0  0  0  0  0  0  0  0  0
  -10.9655   -4.4665  -23.6528 C   0  0  0  0  0  0  0  0  0  0  0  0
  -11.9107   -4.8343  -24.3381 O   0  0  0  0  0  0  0  0  0  0  0  0
   -9.5415   -4.7255  -24.0370 C   0  0  0  0  0  0  0  0  0  0  0  0
   -9.2543   -5.7463  -24.9469 C   0  0  0  0  0  0  0  0  0  0  0  0
   -7.9650   -5.9282  -25.4209 C   0  0  0  0  0  0  0  0  0  0  0  0
   -6.9753   -5.0625  -24.9633 C   0  0  0  0  0  0  0  0  0  0  0  0
   -5.7249   -5.2016  -25.4338 F   0  0  0  0  0  0  0  0  0  0  0  0
   -7.2170   -4.0918  -24.0091 C   0  0  0  0  0  0  0  0  0  0  0  0
   -8.5208   -3.9206  -23.5220 C   0  0  0  0  0  0  0  0  0  0  0  0
   -6.3857   -3.5248  -23.6002 H   0  0  0  0  0  0  0  0  0  0  0  0
   -7.7082   -6.7252  -26.1149 H   0  0  0  0  0  0  0  0  0  0  0  0
  -10.0559   -6.4051  -25.2696 H   0  0  0  0  0  0  0  0  0  0  0  0
  -10.4322   -2.5207  -21.0314 H   0  0  0  0  0  0  0  0  0  0  0  0
   -9.7284   -4.1177  -20.9614 H   0  0  0  0  0  0  0  0  0  0  0  0
   -9.1673   -0.1797  -21.2198 H   0  0  0  0  0  0  0  0  0  0  0  0
   -7.9349    0.3930  -22.3496 H   0  0  0  0  0  0  0  0  0  0  0  0
   -8.3680   -1.3602  -23.9151 H   0  0  0  0  0  0  0  0  0  0  0  0
  -10.4854   -0.0511  -23.8831 H   0  0  0  0  0  0  0  0  0  0  0  0
  -10.8791   -1.7763  -24.0631 H   0  0  0  0  0  0  0  0  0  0  0  0
  -11.0693   -0.9731  -22.4974 H   0  0  0  0  0  0  0  0  0  0  0  0
  1  2  1  0
  2  3  1  0
  3  4  1  0
  4  5  1  0
  5  6  2  0
  6  7  1  0
  7  8  2  0
  8  9  1  0
  9 10  2  0
 10 11  1  0
 11 12  2  0
 12 13  1  0
 13 14  2  0
 13 15  1  0
 12 16  1  0
 11 17  1  0
 10 18  1  0
  8 19  1  0
  6 20  1  0
  4 21  1  0
 21 22  2  0
 21 23  1  0
 23 24  1  1
 24 25  1  0
 25 26  1  0
 26 27  1  0
 27 28  2  0
 28 29  1  0
 29 30  1  0
 30 31  2  0
 30 32  1  0
 28 33  1  0
 26 34  1  0
 26 35  1  0
 25 36  1  0
 36 37  2  0
 36 38  1  0
 38 39  2  0
 39 40  1  0
 40 41  2  0
 41 42  1  0
 41 43  1  0
 43 44  2  0
 43 45  1  0
 40 46  1  0
 39 47  1  0
 24 48  1  0
 24 49  1  0
  3 50  1  0
  3 51  1  0
  2 52  1  6
  1 53  1  0
  1 54  1  0
  1 55  1  0
 23  2  1  0
 31 27  1  0
 44 38  1  0
 14  5  1  0
 44 23  1  0
 14  9  1  0
M  END
>  <cnnaffinities>  (75) 
[6.71844]

>  <score>  (75) 
6.71844

>  <index>  (75) 
77

>  <Smiles>  (75) 
C([C@]1(C(N(c2c(nc(c3c(c(c(c(c23)[H])[H])[H])[H])[H])[H])C(=O)[C@]21C(N(C(c1c(oc(n1)[H])[H])([H])[H])C(=O)c1c(c(c(F)c(c21)[H])[H])[H])([H])[H])([H])[H])[H])([H])([H])[H]

>  <h>  (75) 
<NA>

>  <Training>  (75) 
True

>  <Success>  (75) 
True

>  <enamine_searched>  (75) 
False

>  <enamine_id>  (75) 
nan

$$$$

     RDKit          3D

 56 60  0  0  0  0  0  0  0  0999 V2000
  -14.5935   -1.3579  -24.0225 C   0  0  0  0  0  0  0  0  0  0  0  0
  -13.7383   -2.4456  -23.6003 N   0  0  0  0  0  0  0  0  0  0  0  0
  -13.4158   -2.5663  -22.2867 C   0  0  0  0  0  0  0  0  0  0  0  0
  -13.8039   -1.7872  -21.4328 O   0  0  0  0  0  0  0  0  0  0  0  0
  -12.5677   -3.7843  -21.9159 C   0  0  0  0  0  0  0  0  0  0  0  0
  -11.2186   -3.8061  -22.4683 N   0  0  0  0  0  0  0  0  0  0  0  0
  -10.1098   -3.2968  -21.6651 C   0  0  0  0  0  0  0  0  0  0  0  0
   -8.8800   -2.8393  -22.4900 C   0  0  2  0  0  0  0  0  0  0  0  0
   -7.7233   -2.7114  -21.4903 C   0  0  0  0  0  0  0  0  0  0  0  0
   -7.1525   -3.6244  -20.9275 O   0  0  0  0  0  0  0  0  0  0  0  0
   -7.4275   -1.3800  -21.2965 N   0  0  0  0  0  0  0  0  0  0  0  0
   -6.5744   -0.9890  -20.2410 C   0  0  0  0  0  0  0  0  0  0  0  0
   -6.8441   -1.3717  -18.9501 C   0  0  0  0  0  0  0  0  0  0  0  0
   -6.1014   -0.9948  -17.8813 N   0  0  0  0  0  0  0  0  0  0  0  0
   -5.0636   -0.2224  -18.0949 C   0  0  0  0  0  0  0  0  0  0  0  0
   -4.6777    0.2517  -19.3845 C   0  0  0  0  0  0  0  0  0  0  0  0
   -3.5804    1.1330  -19.5771 C   0  0  0  0  0  0  0  0  0  0  0  0
   -3.2384    1.5495  -20.8358 C   0  0  0  0  0  0  0  0  0  0  0  0
   -3.9548    1.0833  -21.9617 C   0  0  0  0  0  0  0  0  0  0  0  0
   -5.0246    0.2369  -21.8003 C   0  0  0  0  0  0  0  0  0  0  0  0
   -5.4342   -0.1656  -20.5001 C   0  0  0  0  0  0  0  0  0  0  0  0
   -5.5660   -0.1370  -22.6625 H   0  0  0  0  0  0  0  0  0  0  0  0
   -3.6551    1.4018  -22.9562 H   0  0  0  0  0  0  0  0  0  0  0  0
   -2.4098    2.2373  -20.9840 H   0  0  0  0  0  0  0  0  0  0  0  0
   -3.0336    1.4775  -18.7035 H   0  0  0  0  0  0  0  0  0  0  0  0
   -4.4600    0.0555  -17.2286 H   0  0  0  0  0  0  0  0  0  0  0  0
   -7.6953   -2.0163  -18.7371 H   0  0  0  0  0  0  0  0  0  0  0  0
   -8.3962   -0.4929  -21.9281 C   0  0  0  0  0  0  0  0  0  0  0  0
   -9.0076   -1.3738  -23.0333 C   0  0  2  0  0  0  0  0  0  0  0  0
  -10.4046   -0.9322  -23.4647 C   0  0  0  0  0  0  0  0  0  0  0  0
  -11.1106   -0.9226  -22.6259 H   0  0  0  0  0  0  0  0  0  0  0  0
  -10.3821    0.0814  -23.8743 H   0  0  0  0  0  0  0  0  0  0  0  0
  -10.8011   -1.6044  -24.2319 H   0  0  0  0  0  0  0  0  0  0  0  0
   -8.3356   -1.3248  -23.9003 H   0  0  0  0  0  0  0  0  0  0  0  0
   -7.9060    0.4028  -22.3238 H   0  0  0  0  0  0  0  0  0  0  0  0
   -9.1556   -0.1688  -21.1971 H   0  0  0  0  0  0  0  0  0  0  0  0
   -8.5800   -3.8851  -23.5441 C   0  0  0  0  0  0  0  0  0  0  0  0
   -7.2772   -4.0842  -24.0258 C   0  0  0  0  0  0  0  0  0  0  0  0
   -7.0345   -5.0768  -24.9609 C   0  0  0  0  0  0  0  0  0  0  0  0
   -5.4257   -5.2974  -25.5870 Cl  0  0  0  0  0  0  0  0  0  0  0  0
   -8.0536   -5.9156  -25.4155 C   0  0  0  0  0  0  0  0  0  0  0  0
   -9.3456   -5.6865  -24.9755 C   0  0  0  0  0  0  0  0  0  0  0  0
   -9.6142   -4.6642  -24.0707 C   0  0  0  0  0  0  0  0  0  0  0  0
  -11.0325   -4.4133  -23.6747 C   0  0  0  0  0  0  0  0  0  0  0  0
  -11.9850   -4.7170  -24.3993 O   0  0  0  0  0  0  0  0  0  0  0  0
  -10.1838   -6.2888  -25.3111 H   0  0  0  0  0  0  0  0  0  0  0  0
   -7.8265   -6.7422  -26.0809 H   0  0  0  0  0  0  0  0  0  0  0  0
   -6.4481   -3.5081  -23.6252 H   0  0  0  0  0  0  0  0  0  0  0  0
   -9.7468   -4.0540  -20.9623 H   0  0  0  0  0  0  0  0  0  0  0  0
  -10.4781   -2.4501  -21.0766 H   0  0  0  0  0  0  0  0  0  0  0  0
  -13.0864   -4.6640  -22.3080 H   0  0  0  0  0  0  0  0  0  0  0  0
  -12.5274   -3.8425  -20.8229 H   0  0  0  0  0  0  0  0  0  0  0  0
  -13.3481   -3.0934  -24.2701 H   0  0  0  0  0  0  0  0  0  0  0  0
  -14.0356   -0.4145  -24.0941 H   0  0  0  0  0  0  0  0  0  0  0  0
  -15.0273   -1.6100  -24.9958 H   0  0  0  0  0  0  0  0  0  0  0  0
  -15.3746   -1.2332  -23.2672 H   0  0  0  0  0  0  0  0  0  0  0  0
  1  2  1  0
  2  3  1  0
  3  4  2  0
  3  5  1  0
  5  6  1  0
  6  7  1  0
  8  7  1  1
  8  9  1  0
  9 10  2  0
  9 11  1  0
 11 12  1  0
 12 13  2  0
 13 14  1  0
 14 15  2  0
 15 16  1  0
 16 17  2  0
 17 18  1  0
 18 19  2  0
 19 20  1  0
 20 21  2  0
 20 22  1  0
 19 23  1  0
 18 24  1  0
 17 25  1  0
 15 26  1  0
 13 27  1  0
 11 28  1  0
 28 29  1  0
 29 30  1  0
 30 31  1  0
 30 32  1  0
 30 33  1  0
 29 34  1  6
 28 35  1  0
 28 36  1  0
  8 37  1  0
 37 38  2  0
 38 39  1  0
 39 40  1  0
 39 41  2  0
 41 42  1  0
 42 43  2  0
 43 44  1  0
 44 45  2  0
 42 46  1  0
 41 47  1  0
 38 48  1  0
  7 49  1  0
  7 50  1  0
  5 51  1  0
  5 52  1  0
  2 53  1  0
  1 54  1  0
  1 55  1  0
  1 56  1  0
 44  6  1  0
 29  8  1  0
 43 37  1  0
 21 12  1  0
 21 16  1  0
M  END
>  <cnnaffinities>  (76) 
[6.58852]

>  <score>  (76) 
6.58852

>  <index>  (76) 
78

>  <Smiles>  (76) 
C(N(C(=O)C(N1C([C@@]2(C(=O)N(c3c(nc(c4c(c(c(c(c34)[H])[H])[H])[H])[H])[H])C([C@@]2(C([H])([H])[H])[H])([H])[H])c2c(c(Cl)c(c(c2C1=O)[H])[H])[H])([H])[H])([H])[H])[H])([H])([H])[H]

>  <h>  (76) 
<NA>

>  <Training>  (76) 
True

>  <Success>  (76) 
True

>  <enamine_searched>  (76) 
False

>  <enamine_id>  (76) 
nan

$$$$

     RDKit          3D

 45 49  0  0  0  0  0  0  0  0999 V2000
   -7.6851   -4.2090  -23.7352 C   0  0  0  0  0  0  0  0  0  0  0  0
   -7.8298   -3.0354  -22.9031 N   0  0  0  0  0  0  0  0  0  0  0  0
   -6.8038   -2.5748  -22.1226 C   0  0  0  0  0  0  0  0  0  0  0  0
   -5.6555   -2.9591  -22.0982 O   0  0  0  0  0  0  0  0  0  0  0  0
   -7.3328   -1.5327  -21.3456 N   0  0  0  0  0  0  0  0  0  0  0  0
   -6.6008   -0.9481  -20.2838 C   0  0  0  0  0  0  0  0  0  0  0  0
   -6.9573   -1.1959  -18.9833 C   0  0  0  0  0  0  0  0  0  0  0  0
   -6.2058   -0.8463  -17.9132 N   0  0  0  0  0  0  0  0  0  0  0  0
   -5.1266   -0.1421  -18.1523 C   0  0  0  0  0  0  0  0  0  0  0  0
   -4.7340    0.2991  -19.4449 C   0  0  0  0  0  0  0  0  0  0  0  0
   -3.6525    1.1927  -19.6184 C   0  0  0  0  0  0  0  0  0  0  0  0
   -3.2872    1.5865  -20.8737 C   0  0  0  0  0  0  0  0  0  0  0  0
   -3.9892    1.1197  -22.0081 C   0  0  0  0  0  0  0  0  0  0  0  0
   -5.0695    0.2872  -21.8653 C   0  0  0  0  0  0  0  0  0  0  0  0
   -5.4655   -0.1372  -20.5652 C   0  0  0  0  0  0  0  0  0  0  0  0
   -5.6322   -0.0368  -22.7366 H   0  0  0  0  0  0  0  0  0  0  0  0
   -3.6744    1.4359  -22.9968 H   0  0  0  0  0  0  0  0  0  0  0  0
   -2.4519    2.2660  -21.0046 H   0  0  0  0  0  0  0  0  0  0  0  0
   -3.1609    1.5638  -18.7241 H   0  0  0  0  0  0  0  0  0  0  0  0
   -4.5045    0.1257  -17.2991 H   0  0  0  0  0  0  0  0  0  0  0  0
   -7.8877   -1.7130  -18.7617 H   0  0  0  0  0  0  0  0  0  0  0  0
   -8.6899   -1.3440  -21.5688 C   0  0  0  0  0  0  0  0  0  0  0  0
   -9.3673   -0.4719  -21.0801 O   0  0  0  0  0  0  0  0  0  0  0  0
   -9.0948   -2.4331  -22.5493 C   0  0  0  0  0  0  0  0  0  0  0  0
  -10.0847   -1.9767  -23.6417 C   0  0  0  0  0  0  0  0  0  0  0  0
  -11.1040   -2.8961  -23.0999 N   0  0  0  0  0  0  0  0  0  0  0  0
  -11.9536   -4.0485  -23.9762 S   0  0  0  0  0  0  0  0  0  0  0  0
  -12.8838   -4.6396  -23.0339 O   0  0  0  0  0  0  0  0  0  0  0  0
  -11.0550   -4.9022  -24.7401 O   0  0  0  0  0  0  0  0  0  0  0  0
  -12.9600   -3.0776  -25.0719 C   0  0  0  0  0  0  0  0  0  0  0  0
  -14.2703   -2.6358  -24.4902 C   0  0  0  0  0  0  0  0  0  0  0  0
  -14.2471   -3.7606  -25.4617 C   0  0  0  0  0  0  0  0  0  0  0  0
  -14.4122   -4.7600  -25.0682 H   0  0  0  0  0  0  0  0  0  0  0  0
  -14.5881   -3.5852  -26.4759 H   0  0  0  0  0  0  0  0  0  0  0  0
  -14.4102   -2.9008  -23.4512 H   0  0  0  0  0  0  0  0  0  0  0  0
  -14.6695   -1.6882  -24.8147 H   0  0  0  0  0  0  0  0  0  0  0  0
  -12.4242   -2.4723  -25.7980 H   0  0  0  0  0  0  0  0  0  0  0  0
  -10.1979   -3.3907  -22.0453 C   0  0  0  0  0  0  0  0  0  0  0  0
  -10.5837   -3.1437  -21.0658 H   0  0  0  0  0  0  0  0  0  0  0  0
   -9.9353   -4.4513  -22.1097 H   0  0  0  0  0  0  0  0  0  0  0  0
   -9.7840   -2.1777  -24.6687 H   0  0  0  0  0  0  0  0  0  0  0  0
  -10.4071   -0.9389  -23.5057 H   0  0  0  0  0  0  0  0  0  0  0  0
   -8.1385   -5.0945  -23.2784 H   0  0  0  0  0  0  0  0  0  0  0  0
   -6.6165   -4.3866  -23.8456 H   0  0  0  0  0  0  0  0  0  0  0  0
   -8.1341   -4.0365  -24.7148 H   0  0  0  0  0  0  0  0  0  0  0  0
  1  2  1  0
  2  3  1  0
  3  4  2  0
  3  5  1  0
  5  6  1  0
  6  7  2  0
  7  8  1  0
  8  9  2  0
  9 10  1  0
 10 11  2  0
 11 12  1  0
 12 13  2  0
 13 14  1  0
 14 15  2  0
 14 16  1  0
 13 17  1  0
 12 18  1  0
 11 19  1  0
  9 20  1  0
  7 21  1  0
  5 22  1  0
 22 23  2  0
 22 24  1  0
 24 25  1  0
 25 26  1  0
 26 27  1  0
 27 28  2  0
 27 29  2  0
 27 30  1  0
 30 31  1  0
 31 32  1  0
 32 33  1  0
 32 34  1  0
 31 35  1  0
 31 36  1  0
 30 37  1  0
 26 38  1  0
 38 39  1  0
 38 40  1  0
 25 41  1  0
 25 42  1  0
  1 43  1  0
  1 44  1  0
  1 45  1  0
 24  2  1  0
 32 30  1  0
 15  6  1  0
 38 24  1  0
 15 10  1  0
M  END
>  <cnnaffinities>  (77) 
[5.7397, 5.74478, 5.79222, 5.79186, 5.65756, 5.69227, 5.3762, 5.7463]

>  <score>  (77) 
5.7397

>  <index>  (77) 
79

>  <Smiles>  (77) 
C(N1C(=O)N(c2c(nc(c3c(c(c(c(c23)[H])[H])[H])[H])[H])[H])C(=O)C21C(N(S(=O)(=O)C1(C(C1([H])[H])([H])[H])[H])C2([H])[H])([H])[H])([H])([H])[H]

>  <h>  (77) 
<NA>

>  <Training>  (77) 
True

>  <Success>  (77) 
True

>  <enamine_searched>  (77) 
False

>  <enamine_id>  (77) 
nan

$$$$

     RDKit          3D

 60 65  0  0  0  0  0  0  0  0999 V2000
   -8.4989    2.1985  -28.9308 C   0  0  0  0  0  0  0  0  0  0  0  0
   -8.7200    2.2306  -27.4987 N   0  0  0  0  0  0  0  0  0  0  0  0
   -7.9079    1.5343  -26.6660 C   0  0  0  0  0  0  0  0  0  0  0  0
   -6.9313    0.9179  -27.0646 O   0  0  0  0  0  0  0  0  0  0  0  0
   -8.2782    1.5978  -25.1887 C   0  0  0  0  0  0  0  0  0  0  0  0
   -9.0429    0.5031  -24.6631 N   0  0  0  0  0  0  0  0  0  0  0  0
   -8.3757   -0.7568  -24.3825 C   0  0  0  0  0  0  0  0  0  0  0  0
   -8.8872   -1.4122  -23.0743 C   0  0  2  0  0  0  0  0  0  0  0  0
   -8.3713   -0.6273  -21.8502 C   0  0  0  0  0  0  0  0  0  0  0  0
   -8.7126    0.4740  -21.4781 O   0  0  0  0  0  0  0  0  0  0  0  0
   -7.4164   -1.3813  -21.2170 N   0  0  0  0  0  0  0  0  0  0  0  0
   -6.6170   -0.8301  -20.1874 C   0  0  0  0  0  0  0  0  0  0  0  0
   -6.9263   -1.1037  -18.8849 C   0  0  0  0  0  0  0  0  0  0  0  0
   -6.1633   -0.7265  -17.8300 N   0  0  0  0  0  0  0  0  0  0  0  0
   -5.1007   -0.0011  -18.0881 C   0  0  0  0  0  0  0  0  0  0  0  0
   -4.7191    0.4348  -19.3938 C   0  0  0  0  0  0  0  0  0  0  0  0
   -3.6170    1.3050  -19.6250 C   0  0  0  0  0  0  0  0  0  0  0  0
   -3.2358    1.6248  -20.8989 C   0  0  0  0  0  0  0  0  0  0  0  0
   -3.9388    1.0979  -22.0069 C   0  0  0  0  0  0  0  0  0  0  0  0
   -5.0265    0.2844  -21.8098 C   0  0  0  0  0  0  0  0  0  0  0  0
   -5.4687   -0.0360  -20.4931 C   0  0  0  0  0  0  0  0  0  0  0  0
   -5.5421   -0.1280  -22.6723 H   0  0  0  0  0  0  0  0  0  0  0  0
   -3.6121    1.3402  -23.0149 H   0  0  0  0  0  0  0  0  0  0  0  0
   -2.3812    2.2750  -21.0735 H   0  0  0  0  0  0  0  0  0  0  0  0
   -3.0978    1.7238  -18.7660 H   0  0  0  0  0  0  0  0  0  0  0  0
   -4.4748    0.2773  -17.2383 H   0  0  0  0  0  0  0  0  0  0  0  0
   -7.8322   -1.6689  -18.6589 H   0  0  0  0  0  0  0  0  0  0  0  0
   -7.1062   -2.6368  -21.8575 C   0  0  0  0  0  0  0  0  0  0  0  0
   -8.2711   -2.8370  -22.8443 C   0  0  2  0  0  0  0  0  0  0  0  0
   -7.8371   -3.6284  -24.0814 C   0  0  0  0  0  0  0  0  0  0  0  0
   -8.6569   -3.7747  -24.7951 H   0  0  0  0  0  0  0  0  0  0  0  0
   -7.0186   -3.1169  -24.6028 H   0  0  0  0  0  0  0  0  0  0  0  0
   -7.4659   -4.6207  -23.7966 H   0  0  0  0  0  0  0  0  0  0  0  0
   -9.0400   -3.4188  -22.3330 H   0  0  0  0  0  0  0  0  0  0  0  0
   -7.0302   -3.4354  -21.1097 H   0  0  0  0  0  0  0  0  0  0  0  0
   -6.1411   -2.5832  -22.3844 H   0  0  0  0  0  0  0  0  0  0  0  0
  -10.4061   -1.3683  -23.0750 C   0  0  0  0  0  0  0  0  0  0  0  0
  -11.1249   -2.1578  -22.1643 C   0  0  0  0  0  0  0  0  0  0  0  0
  -12.5069   -2.1175  -22.1525 C   0  0  0  0  0  0  0  0  0  0  0  0
  -13.3817   -3.1200  -21.0231 Cl  0  0  0  0  0  0  0  0  0  0  0  0
  -13.2130   -1.2800  -23.0185 C   0  0  0  0  0  0  0  0  0  0  0  0
  -12.5114   -0.4461  -23.8689 C   0  0  0  0  0  0  0  0  0  0  0  0
  -11.1162   -0.4612  -23.8783 C   0  0  0  0  0  0  0  0  0  0  0  0
  -10.4136    0.5658  -24.7135 C   0  0  0  0  0  0  0  0  0  0  0  0
  -11.0048    1.4313  -25.3475 O   0  0  0  0  0  0  0  0  0  0  0  0
  -13.0149    0.2561  -24.5284 H   0  0  0  0  0  0  0  0  0  0  0  0
  -14.2961   -1.2748  -22.9873 H   0  0  0  0  0  0  0  0  0  0  0  0
  -10.6229   -2.7956  -21.4423 H   0  0  0  0  0  0  0  0  0  0  0  0
   -8.5644   -1.4547  -25.2089 H   0  0  0  0  0  0  0  0  0  0  0  0
   -7.3043   -0.5562  -24.3206 H   0  0  0  0  0  0  0  0  0  0  0  0
   -8.4364    2.9428  -24.5468 C   0  0  0  0  0  0  0  0  0  0  0  0
   -7.1927    2.1454  -24.3032 C   0  0  0  0  0  0  0  0  0  0  0  0
   -6.2756    2.4197  -24.8153 H   0  0  0  0  0  0  0  0  0  0  0  0
   -7.0971    1.6589  -23.3375 H   0  0  0  0  0  0  0  0  0  0  0  0
   -8.4124    3.8086  -25.2003 H   0  0  0  0  0  0  0  0  0  0  0  0
   -9.1585    2.9984  -23.7418 H   0  0  0  0  0  0  0  0  0  0  0  0
   -9.6077    2.5340  -27.1324 H   0  0  0  0  0  0  0  0  0  0  0  0
   -9.2817    2.7704  -29.4345 H   0  0  0  0  0  0  0  0  0  0  0  0
   -8.4958    1.1727  -29.3080 H   0  0  0  0  0  0  0  0  0  0  0  0
   -7.5278    2.6341  -29.1764 H   0  0  0  0  0  0  0  0  0  0  0  0
  1  2  1  0
  2  3  1  0
  3  4  2  0
  3  5  1  0
  5  6  1  0
  6  7  1  0
  8  7  1  6
  8  9  1  0
  9 10  2  0
  9 11  1  0
 11 12  1  0
 12 13  2  0
 13 14  1  0
 14 15  2  0
 15 16  1  0
 16 17  2  0
 17 18  1  0
 18 19  2  0
 19 20  1  0
 20 21  2  0
 20 22  1  0
 19 23  1  0
 18 24  1  0
 17 25  1  0
 15 26  1  0
 13 27  1  0
 11 28  1  0
 28 29  1  0
 29 30  1  0
 30 31  1  0
 30 32  1  0
 30 33  1  0
 29 34  1  1
 28 35  1  0
 28 36  1  0
  8 37  1  0
 37 38  2  0
 38 39  1  0
 39 40  1  0
 39 41  2  0
 41 42  1  0
 42 43  2  0
 43 44  1  0
 44 45  2  0
 42 46  1  0
 41 47  1  0
 38 48  1  0
  7 49  1  0
  7 50  1  0
  5 51  1  0
 51 52  1  0
 52 53  1  0
 52 54  1  0
 51 55  1  0
 51 56  1  0
  2 57  1  0
  1 58  1  0
  1 59  1  0
  1 60  1  0
 52  5  1  0
 44  6  1  0
 29  8  1  0
 43 37  1  0
 21 12  1  0
 21 16  1  0
M  END
>  <cnnaffinities>  (78) 
[6.32362, 5.56051]

>  <score>  (78) 
6.32362

>  <index>  (78) 
80

>  <Smiles>  (78) 
C(N(C(=O)C1(N2C([C@@]3(C(=O)N(c4c(nc(c5c(c(c(c(c45)[H])[H])[H])[H])[H])[H])C([C@@]3(C([H])([H])[H])[H])([H])[H])c3c(c(Cl)c(c(c3C2=O)[H])[H])[H])([H])[H])C(C1([H])[H])([H])[H])[H])([H])([H])[H]

>  <h>  (78) 
<NA>

>  <Training>  (78) 
True

>  <Success>  (78) 
True

>  <enamine_searched>  (78) 
False

>  <enamine_id>  (78) 
nan

$$$$

     RDKit          3D

 36 38  0  0  0  0  0  0  0  0999 V2000
   -8.9396    0.4531  -21.2073 O   0  0  0  0  0  0  0  0  0  0  0  0
   -8.3742   -0.3557  -21.9242 C   0  0  0  0  0  0  0  0  0  0  0  0
   -7.4338   -1.3921  -21.3093 C   0  0  0  0  0  0  0  0  0  0  0  0
   -6.5974   -0.8228  -20.2052 C   0  0  0  0  0  0  0  0  0  0  0  0
   -6.9147   -1.0729  -18.8981 C   0  0  0  0  0  0  0  0  0  0  0  0
   -6.1701   -0.6902  -17.8301 N   0  0  0  0  0  0  0  0  0  0  0  0
   -5.0972    0.0241  -18.0753 C   0  0  0  0  0  0  0  0  0  0  0  0
   -4.7022    0.4515  -19.3797 C   0  0  0  0  0  0  0  0  0  0  0  0
   -3.6019    1.3218  -19.6089 C   0  0  0  0  0  0  0  0  0  0  0  0
   -3.2270    1.6418  -20.8863 C   0  0  0  0  0  0  0  0  0  0  0  0
   -3.9385    1.1252  -21.9924 C   0  0  0  0  0  0  0  0  0  0  0  0
   -5.0321    0.3221  -21.7961 C   0  0  0  0  0  0  0  0  0  0  0  0
   -5.4549   -0.0170  -20.4807 C   0  0  0  0  0  0  0  0  0  0  0  0
   -5.5776   -0.0612  -22.6537 H   0  0  0  0  0  0  0  0  0  0  0  0
   -3.6119    1.3636  -23.0011 H   0  0  0  0  0  0  0  0  0  0  0  0
   -2.3700    2.2822  -21.0643 H   0  0  0  0  0  0  0  0  0  0  0  0
   -3.0821    1.7383  -18.7487 H   0  0  0  0  0  0  0  0  0  0  0  0
   -4.4790    0.2947  -17.2138 H   0  0  0  0  0  0  0  0  0  0  0  0
   -7.8018   -1.6610  -18.6530 H   0  0  0  0  0  0  0  0  0  0  0  0
   -8.0910   -2.1588  -20.8859 H   0  0  0  0  0  0  0  0  0  0  0  0
   -6.8171   -1.8946  -22.0590 H   0  0  0  0  0  0  0  0  0  0  0  0
   -8.5776   -0.3816  -23.2892 N   0  0  0  0  0  0  0  0  0  0  0  0
   -8.1609   -1.4723  -24.1604 C   0  0  0  0  0  0  0  0  0  0  0  0
   -8.9350   -2.7572  -23.9560 C   0  0  0  0  0  0  0  0  0  0  0  0
  -10.2575   -2.8461  -23.7782 C   0  0  0  0  0  0  0  0  0  0  0  0
  -11.2329   -1.7433  -23.7320 C   0  0  0  0  0  0  0  0  0  0  0  0
  -11.0256   -0.4203  -23.7286 C   0  0  0  0  0  0  0  0  0  0  0  0
   -9.7308    0.3532  -23.7777 C   0  0  0  0  0  0  0  0  0  0  0  0
   -9.5174    0.6618  -24.8147 H   0  0  0  0  0  0  0  0  0  0  0  0
   -9.8270    1.2597  -23.1737 H   0  0  0  0  0  0  0  0  0  0  0  0
  -11.9066    0.2175  -23.7103 H   0  0  0  0  0  0  0  0  0  0  0  0
  -12.2670   -2.0877  -23.7071 H   0  0  0  0  0  0  0  0  0  0  0  0
  -10.7075   -3.8350  -23.6937 H   0  0  0  0  0  0  0  0  0  0  0  0
   -8.3583   -3.6791  -24.0013 H   0  0  0  0  0  0  0  0  0  0  0  0
   -8.3213   -1.0939  -25.1831 H   0  0  0  0  0  0  0  0  0  0  0  0
   -7.0789   -1.6558  -24.0698 H   0  0  0  0  0  0  0  0  0  0  0  0
  1  2  2  0
  2  3  1  0
  3  4  1  0
  4  5  2  0
  5  6  1  0
  6  7  2  0
  7  8  1  0
  8  9  2  0
  9 10  1  0
 10 11  2  0
 11 12  1  0
 12 13  2  0
 12 14  1  0
 11 15  1  0
 10 16  1  0
  9 17  1  0
  7 18  1  0
  5 19  1  0
  3 20  1  0
  3 21  1  0
  2 22  1  0
 22 23  1  0
 23 24  1  0
 24 25  2  0
 25 26  1  0
 26 27  2  0
 27 28  1  0
 28 29  1  0
 28 30  1  0
 27 31  1  0
 26 32  1  0
 25 33  1  0
 24 34  1  0
 23 35  1  0
 23 36  1  0
 13  4  1  0
 28 22  1  0
 13  8  1  0
M  END
>  <cnnaffinities>  (79) 
[5.06667, 5.06637, 4.54493, 4.54491, 4.76418, 4.83435]

>  <score>  (79) 
5.06667

>  <index>  (79) 
81

>  <Smiles>  (79) 
O=C(C(c1c(nc(c2c(c(c(c(c12)[H])[H])[H])[H])[H])[H])([H])[H])N1C(C(=C(C(=C(C1([H])[H])[H])[H])[H])[H])([H])[H]

>  <h>  (79) 
<NA>

>  <Training>  (79) 
True

>  <Success>  (79) 
True

>  <enamine_searched>  (79) 
False

>  <enamine_id>  (79) 
nan

$$$$

     RDKit          3D

 54 57  0  0  0  0  0  0  0  0999 V2000
  -10.6891    0.3804  -25.3749 C   0  0  0  0  0  0  0  0  0  0  0  0
   -9.8046   -0.6088  -24.9082 O   0  0  0  0  0  0  0  0  0  0  0  0
   -8.4833   -0.5178  -25.2113 C   0  0  0  0  0  0  0  0  0  0  0  0
   -7.9475    0.5108  -25.9847 C   0  0  0  0  0  0  0  0  0  0  0  0
   -6.5799    0.5384  -26.2418 C   0  0  0  0  0  0  0  0  0  0  0  0
   -5.7615   -0.4548  -25.7246 C   0  0  0  0  0  0  0  0  0  0  0  0
   -6.3116   -1.4735  -24.9447 C   0  0  0  0  0  0  0  0  0  0  0  0
   -7.6716   -1.5415  -24.6795 C   0  0  0  0  0  0  0  0  0  0  0  0
   -8.3079   -2.6607  -23.8383 C   0  0  1  0  0  0  0  0  0  0  0  0
   -9.1476   -3.6454  -24.6855 C   0  0  0  0  0  0  0  0  0  0  0  0
   -8.4069   -4.8562  -25.2711 C   0  0  1  0  0  0  0  0  0  0  0  0
   -7.5037   -4.5308  -26.4674 C   0  0  0  0  0  0  0  0  0  0  0  0
   -6.6804   -3.8633  -26.1905 H   0  0  0  0  0  0  0  0  0  0  0  0
   -7.0699   -5.4475  -26.8868 H   0  0  0  0  0  0  0  0  0  0  0  0
   -8.0765   -4.0361  -27.2612 H   0  0  0  0  0  0  0  0  0  0  0  0
   -7.6738   -5.5521  -24.1201 C   0  0  0  0  0  0  0  0  0  0  0  0
   -6.7154   -4.6075  -23.4057 C   0  0  0  0  0  0  0  0  0  0  0  0
   -7.3609   -3.3671  -22.9674 N   0  0  0  0  0  0  0  0  0  0  0  0
   -6.7512   -2.7513  -21.8970 C   0  0  0  0  0  0  0  0  0  0  0  0
   -5.7353   -3.2156  -21.4025 O   0  0  0  0  0  0  0  0  0  0  0  0
   -7.4075   -1.4823  -21.3096 C   0  0  0  0  0  0  0  0  0  0  0  0
   -6.5937   -0.8511  -20.2135 C   0  0  0  0  0  0  0  0  0  0  0  0
   -6.9053   -1.0907  -18.9040 C   0  0  0  0  0  0  0  0  0  0  0  0
   -6.1766   -0.6792  -17.8338 N   0  0  0  0  0  0  0  0  0  0  0  0
   -5.1041    0.0370  -18.0784 C   0  0  0  0  0  0  0  0  0  0  0  0
   -4.7062    0.4521  -19.3835 C   0  0  0  0  0  0  0  0  0  0  0  0
   -3.6024    1.3192  -19.6146 C   0  0  0  0  0  0  0  0  0  0  0  0
   -3.2134    1.6230  -20.8924 C   0  0  0  0  0  0  0  0  0  0  0  0
   -3.9167    1.0889  -21.9950 C   0  0  0  0  0  0  0  0  0  0  0  0
   -5.0107    0.2844  -21.8006 C   0  0  0  0  0  0  0  0  0  0  0  0
   -5.4486   -0.0395  -20.4856 C   0  0  0  0  0  0  0  0  0  0  0  0
   -5.5462   -0.1200  -22.6559 H   0  0  0  0  0  0  0  0  0  0  0  0
   -3.5829    1.3211  -23.0041 H   0  0  0  0  0  0  0  0  0  0  0  0
   -2.3523    2.2581  -21.0713 H   0  0  0  0  0  0  0  0  0  0  0  0
   -3.0841    1.7419  -18.7573 H   0  0  0  0  0  0  0  0  0  0  0  0
   -4.4944    0.3082  -17.2110 H   0  0  0  0  0  0  0  0  0  0  0  0
   -7.7830   -1.6818  -18.6346 H   0  0  0  0  0  0  0  0  0  0  0  0
   -7.6214   -0.7625  -22.1081 H   0  0  0  0  0  0  0  0  0  0  0  0
   -8.3755   -1.7846  -20.8893 H   0  0  0  0  0  0  0  0  0  0  0  0
   -6.3213   -5.0723  -22.5016 H   0  0  0  0  0  0  0  0  0  0  0  0
   -5.8445   -4.3946  -24.0470 H   0  0  0  0  0  0  0  0  0  0  0  0
   -8.4151   -5.9221  -23.3964 H   0  0  0  0  0  0  0  0  0  0  0  0
   -7.1075   -6.4181  -24.4948 H   0  0  0  0  0  0  0  0  0  0  0  0
   -9.1810   -5.5489  -25.6321 H   0  0  0  0  0  0  0  0  0  0  0  0
   -9.6210   -3.0678  -25.4864 H   0  0  0  0  0  0  0  0  0  0  0  0
   -9.9452   -4.0276  -24.0335 H   0  0  0  0  0  0  0  0  0  0  0  0
   -9.0306   -2.1636  -23.1800 H   0  0  0  0  0  0  0  0  0  0  0  0
   -5.6672   -2.2565  -24.5488 H   0  0  0  0  0  0  0  0  0  0  0  0
   -4.6952   -0.4583  -25.9227 H   0  0  0  0  0  0  0  0  0  0  0  0
   -6.1604    1.3423  -26.8427 H   0  0  0  0  0  0  0  0  0  0  0  0
   -8.5922    1.2868  -26.3811 H   0  0  0  0  0  0  0  0  0  0  0  0
  -11.6592    0.0701  -24.9770 H   0  0  0  0  0  0  0  0  0  0  0  0
  -10.7109    0.4179  -26.4753 H   0  0  0  0  0  0  0  0  0  0  0  0
  -10.4344    1.3817  -24.9958 H   0  0  0  0  0  0  0  0  0  0  0  0
  1  2  1  0
  2  3  1  0
  3  4  2  0
  4  5  1  0
  5  6  2  0
  6  7  1  0
  7  8  2  0
  8  9  1  0
  9 10  1  0
 10 11  1  0
 11 12  1  0
 12 13  1  0
 12 14  1  0
 12 15  1  0
 11 16  1  0
 16 17  1  0
 17 18  1  0
 18 19  1  0
 19 20  2  0
 19 21  1  0
 21 22  1  0
 22 23  2  0
 23 24  1  0
 24 25  2  0
 25 26  1  0
 26 27  2  0
 27 28  1  0
 28 29  2  0
 29 30  1  0
 30 31  2  0
 30 32  1  0
 29 33  1  0
 28 34  1  0
 27 35  1  0
 25 36  1  0
 23 37  1  0
 21 38  1  0
 21 39  1  0
 17 40  1  0
 17 41  1  0
 16 42  1  0
 16 43  1  0
 11 44  1  6
 10 45  1  0
 10 46  1  0
  9 47  1  1
  7 48  1  0
  6 49  1  0
  5 50  1  0
  4 51  1  0
  1 52  1  0
  1 53  1  0
  1 54  1  0
  8  3  1  0
 18  9  1  0
 31 22  1  0
 31 26  1  0
M  END
>  <cnnaffinities>  (80) 
[5.56042, 5.71367]

>  <score>  (80) 
5.56042

>  <index>  (80) 
82

>  <Smiles>  (80) 
C(Oc1c(c(c(c(c1[C@]1(C([C@@](C([H])([H])[H])(C(C(N1C(=O)C(c1c(nc(c2c(c(c(c(c12)[H])[H])[H])[H])[H])[H])([H])[H])([H])[H])([H])[H])[H])([H])[H])[H])[H])[H])[H])[H])([H])([H])[H]

>  <h>  (80) 
<NA>

>  <Training>  (80) 
True

>  <Success>  (80) 
True

>  <enamine_searched>  (80) 
False

>  <enamine_id>  (80) 
nan

$$$$

     RDKit          3D

 46 50  0  0  0  0  0  0  0  0999 V2000
   -5.9938   -4.3479  -26.9467 N   0  0  0  0  0  0  0  0  0  0  0  0
   -5.7318   -2.7320  -26.7468 S   0  0  0  0  0  0  0  0  0  0  0  0
   -4.7685   -2.6252  -25.6634 O   0  0  0  0  0  0  0  0  0  0  0  0
   -5.4986   -2.2118  -28.0838 O   0  0  0  0  0  0  0  0  0  0  0  0
   -7.2613   -2.0373  -26.1765 C   0  0  0  0  0  0  0  0  0  0  0  0
   -8.1103   -1.3995  -27.0831 C   0  0  0  0  0  0  0  0  0  0  0  0
   -9.2568   -0.7881  -26.6110 C   0  0  0  0  0  0  0  0  0  0  0  0
   -9.6030   -0.8943  -25.2641 C   0  0  0  0  0  0  0  0  0  0  0  0
   -8.7658   -1.5540  -24.3610 C   0  0  0  0  0  0  0  0  0  0  0  0
   -7.5739   -2.1071  -24.8274 C   0  0  0  0  0  0  0  0  0  0  0  0
   -6.8887   -2.5885  -24.1347 H   0  0  0  0  0  0  0  0  0  0  0  0
   -9.0978   -1.5911  -22.8858 C   0  0  1  0  0  0  0  0  0  0  0  0
  -10.5839   -1.2818  -22.6702 C   0  0  0  0  0  0  0  0  0  0  0  0
  -11.0219   -0.1062  -23.5318 C   0  0  0  0  0  0  0  0  0  0  0  0
  -10.7968   -0.3472  -24.9191 O   0  0  0  0  0  0  0  0  0  0  0  0
  -12.1007    0.0493  -23.4572 H   0  0  0  0  0  0  0  0  0  0  0  0
  -10.4921    0.8054  -23.2294 H   0  0  0  0  0  0  0  0  0  0  0  0
  -10.7311   -1.0717  -21.6097 H   0  0  0  0  0  0  0  0  0  0  0  0
  -11.1650   -2.1738  -22.9310 H   0  0  0  0  0  0  0  0  0  0  0  0
   -8.7191   -2.8387  -22.2532 N   0  0  0  0  0  0  0  0  0  0  0  0
   -7.7315   -2.7295  -21.3303 C   0  0  0  0  0  0  0  0  0  0  0  0
   -7.1345   -3.6058  -20.7430 O   0  0  0  0  0  0  0  0  0  0  0  0
   -7.4619   -1.3529  -21.2113 N   0  0  0  0  0  0  0  0  0  0  0  0
   -6.6227   -0.8263  -20.1992 C   0  0  0  0  0  0  0  0  0  0  0  0
   -6.9269   -1.1010  -18.8884 C   0  0  0  0  0  0  0  0  0  0  0  0
   -6.1882   -0.6850  -17.8364 N   0  0  0  0  0  0  0  0  0  0  0  0
   -5.1248    0.0365  -18.1007 C   0  0  0  0  0  0  0  0  0  0  0  0
   -4.7214    0.4436  -19.4088 C   0  0  0  0  0  0  0  0  0  0  0  0
   -3.6084    1.3077  -19.6277 C   0  0  0  0  0  0  0  0  0  0  0  0
   -3.2041    1.6057  -20.9007 C   0  0  0  0  0  0  0  0  0  0  0  0
   -3.8934    1.0622  -22.0071 C   0  0  0  0  0  0  0  0  0  0  0  0
   -4.9924    0.2605  -21.8193 C   0  0  0  0  0  0  0  0  0  0  0  0
   -5.4611   -0.0404  -20.5067 C   0  0  0  0  0  0  0  0  0  0  0  0
   -5.5193   -0.1399  -22.6786 H   0  0  0  0  0  0  0  0  0  0  0  0
   -3.5501    1.2831  -23.0125 H   0  0  0  0  0  0  0  0  0  0  0  0
   -2.3416    2.2438  -21.0722 H   0  0  0  0  0  0  0  0  0  0  0  0
   -3.1031    1.7292  -18.7632 H   0  0  0  0  0  0  0  0  0  0  0  0
   -4.5201    0.3195  -17.2423 H   0  0  0  0  0  0  0  0  0  0  0  0
   -7.8032   -1.6988  -18.6444 H   0  0  0  0  0  0  0  0  0  0  0  0
   -8.2212   -0.5996  -22.1008 C   0  0  0  0  0  0  0  0  0  0  0  0
   -8.1855    0.6036  -22.2086 O   0  0  0  0  0  0  0  0  0  0  0  0
   -9.1063   -3.7289  -22.5013 H   0  0  0  0  0  0  0  0  0  0  0  0
   -9.8802   -0.1711  -27.2497 H   0  0  0  0  0  0  0  0  0  0  0  0
   -7.8610   -1.3950  -28.1412 H   0  0  0  0  0  0  0  0  0  0  0  0
   -6.1637   -4.8208  -26.0666 H   0  0  0  0  0  0  0  0  0  0  0  0
   -6.6448   -4.5422  -27.6997 H   0  0  0  0  0  0  0  0  0  0  0  0
  1  2  1  0
  2  3  2  0
  2  4  2  0
  2  5  1  0
  5  6  2  0
  6  7  1  0
  7  8  2  0
  8  9  1  0
  9 10  2  0
 10 11  1  0
  9 12  1  0
 12 13  1  0
 13 14  1  0
 14 15  1  0
 14 16  1  0
 14 17  1  0
 13 18  1  0
 13 19  1  0
 12 20  1  1
 20 21  1  0
 21 22  2  0
 21 23  1  0
 23 24  1  0
 24 25  2  0
 25 26  1  0
 26 27  2  0
 27 28  1  0
 28 29  2  0
 29 30  1  0
 30 31  2  0
 31 32  1  0
 32 33  2  0
 32 34  1  0
 31 35  1  0
 30 36  1  0
 29 37  1  0
 27 38  1  0
 25 39  1  0
 23 40  1  0
 40 41  2  0
 20 42  1  0
  7 43  1  0
  6 44  1  0
  1 45  1  0
  1 46  1  0
 10  5  1  0
 40 12  1  0
 15  8  1  0
 33 24  1  0
 33 28  1  0
M  END
>  <cnnaffinities>  (81) 
[5.01513, 5.27004, 5.05497, 5.05484]

>  <score>  (81) 
5.01513

>  <index>  (81) 
83

>  <Smiles>  (81) 
N(S(=O)(=O)c1c(c(c2c(c1[H])[C@@]1(C(C(O2)([H])[H])([H])[H])N(C(=O)N(c2c(nc(c3c(c(c(c(c23)[H])[H])[H])[H])[H])[H])C1=O)[H])[H])[H])([H])[H]

>  <h>  (81) 
<NA>

>  <Training>  (81) 
True

>  <Success>  (81) 
True

>  <enamine_searched>  (81) 
False

>  <enamine_id>  (81) 
nan

$$$$

     RDKit          3D

 63 68  0  0  0  0  0  0  0  0999 V2000
   -8.2034   -3.7931  -23.9212 C   0  0  0  0  0  0  0  0  0  0  0  0
   -8.3835   -3.0434  -22.6076 C   0  0  1  0  0  0  0  0  0  0  0  0
   -7.0523   -2.4775  -22.0776 C   0  0  0  0  0  0  0  0  0  0  0  0
   -7.4735   -1.3636  -21.2595 N   0  0  0  0  0  0  0  0  0  0  0  0
   -6.6649   -0.8697  -20.2076 C   0  0  0  0  0  0  0  0  0  0  0  0
   -6.9555   -1.1772  -18.9001 C   0  0  0  0  0  0  0  0  0  0  0  0
   -6.1517   -0.8656  -17.8571 N   0  0  0  0  0  0  0  0  0  0  0  0
   -5.0702   -0.1688  -18.1080 C   0  0  0  0  0  0  0  0  0  0  0  0
   -4.6971    0.2860  -19.4054 C   0  0  0  0  0  0  0  0  0  0  0  0
   -3.6021    1.1649  -19.6105 C   0  0  0  0  0  0  0  0  0  0  0  0
   -3.2723    1.5800  -20.8726 C   0  0  0  0  0  0  0  0  0  0  0  0
   -4.0000    1.1078  -21.9839 C   0  0  0  0  0  0  0  0  0  0  0  0
   -5.0805    0.2697  -21.8070 C   0  0  0  0  0  0  0  0  0  0  0  0
   -5.4811   -0.1250  -20.5021 C   0  0  0  0  0  0  0  0  0  0  0  0
   -5.7019    0.0028  -22.6555 H   0  0  0  0  0  0  0  0  0  0  0  0
   -3.7310    1.4437  -22.9810 H   0  0  0  0  0  0  0  0  0  0  0  0
   -2.4579    2.2839  -21.0217 H   0  0  0  0  0  0  0  0  0  0  0  0
   -3.0741    1.5216  -18.7341 H   0  0  0  0  0  0  0  0  0  0  0  0
   -4.4301    0.0762  -17.2609 H   0  0  0  0  0  0  0  0  0  0  0  0
   -7.8561   -1.7317  -18.6439 H   0  0  0  0  0  0  0  0  0  0  0  0
   -8.7584   -0.9354  -21.5169 C   0  0  0  0  0  0  0  0  0  0  0  0
   -9.2907    0.0120  -20.9730 O   0  0  0  0  0  0  0  0  0  0  0  0
   -9.3674   -1.8347  -22.6382 C   0  0  1  0  0  0  0  0  0  0  0  0
   -9.2830   -1.0549  -23.9827 C   0  0  0  0  0  0  0  0  0  0  0  0
  -10.1739    0.0933  -24.0054 N   0  0  0  0  0  0  0  0  0  0  0  0
   -9.7197    1.3450  -24.5981 C   0  0  0  0  0  0  0  0  0  0  0  0
   -8.4047    1.7535  -23.9222 C   0  0  0  0  0  0  0  0  0  0  0  0
   -7.3113    1.4836  -24.4045 O   0  0  0  0  0  0  0  0  0  0  0  0
   -8.5725    2.3646  -22.7179 N   0  0  0  0  0  0  0  0  0  0  0  0
   -7.4694    2.6969  -21.8491 C   0  0  0  0  0  0  0  0  0  0  0  0
   -7.1211    4.1746  -21.8592 C   0  0  0  0  0  0  0  0  0  0  0  0
   -8.2123    4.9831  -22.0791 F   0  0  0  0  0  0  0  0  0  0  0  0
   -5.8472    4.6436  -22.4920 C   0  0  0  0  0  0  0  0  0  0  0  0
   -6.0667    4.7795  -20.9947 C   0  0  0  0  0  0  0  0  0  0  0  0
   -5.4990    4.1527  -20.3035 H   0  0  0  0  0  0  0  0  0  0  0  0
   -6.2835    5.7842  -20.6345 H   0  0  0  0  0  0  0  0  0  0  0  0
   -5.1588    3.8750  -22.8435 H   0  0  0  0  0  0  0  0  0  0  0  0
   -5.8996    5.5323  -23.1175 H   0  0  0  0  0  0  0  0  0  0  0  0
   -7.6910    2.2972  -20.8556 H   0  0  0  0  0  0  0  0  0  0  0  0
   -6.6116    2.1447  -22.2294 H   0  0  0  0  0  0  0  0  0  0  0  0
   -9.4998    2.4272  -22.3182 H   0  0  0  0  0  0  0  0  0  0  0  0
   -9.5931    1.2545  -25.6870 H   0  0  0  0  0  0  0  0  0  0  0  0
  -10.5085    2.0864  -24.4268 H   0  0  0  0  0  0  0  0  0  0  0  0
  -11.4653    0.0018  -23.5824 C   0  0  0  0  0  0  0  0  0  0  0  0
  -12.2820    0.8879  -23.7882 O   0  0  0  0  0  0  0  0  0  0  0  0
  -11.8221   -1.2434  -22.8294 C   0  0  0  0  0  0  0  0  0  0  0  0
  -13.1743   -1.4228  -22.5356 C   0  0  0  0  0  0  0  0  0  0  0  0
  -13.5701   -2.4160  -21.6741 C   0  0  0  0  0  0  0  0  0  0  0  0
  -12.5930   -3.2604  -21.1742 C   0  0  0  0  0  0  0  0  0  0  0  0
  -12.9631   -4.0816  -20.1799 F   0  0  0  0  0  0  0  0  0  0  0  0
  -11.2707   -3.2263  -21.5947 C   0  0  0  0  0  0  0  0  0  0  0  0
  -10.8424   -2.1514  -22.3899 C   0  0  0  0  0  0  0  0  0  0  0  0
  -10.5809   -3.9831  -21.2312 H   0  0  0  0  0  0  0  0  0  0  0  0
  -14.5941   -2.5497  -21.3411 H   0  0  0  0  0  0  0  0  0  0  0  0
  -13.9037   -0.7406  -22.9523 H   0  0  0  0  0  0  0  0  0  0  0  0
   -9.5617   -1.7150  -24.8134 H   0  0  0  0  0  0  0  0  0  0  0  0
   -8.2609   -0.6952  -24.1391 H   0  0  0  0  0  0  0  0  0  0  0  0
   -6.3978   -2.1561  -22.9057 H   0  0  0  0  0  0  0  0  0  0  0  0
   -6.4851   -3.2009  -21.4799 H   0  0  0  0  0  0  0  0  0  0  0  0
   -8.7440   -3.7403  -21.8435 H   0  0  0  0  0  0  0  0  0  0  0  0
   -7.7551   -3.1364  -24.6764 H   0  0  0  0  0  0  0  0  0  0  0  0
   -7.5309   -4.6487  -23.7985 H   0  0  0  0  0  0  0  0  0  0  0  0
   -9.1607   -4.1525  -24.3127 H   0  0  0  0  0  0  0  0  0  0  0  0
  1  2  1  0
  2  3  1  0
  3  4  1  0
  4  5  1  0
  5  6  2  0
  6  7  1  0
  7  8  2  0
  8  9  1  0
  9 10  2  0
 10 11  1  0
 11 12  2  0
 12 13  1  0
 13 14  2  0
 13 15  1  0
 12 16  1  0
 11 17  1  0
 10 18  1  0
  8 19  1  0
  6 20  1  0
  4 21  1  0
 21 22  2  0
 21 23  1  0
 23 24  1  6
 24 25  1  0
 25 26  1  0
 26 27  1  0
 27 28  2  0
 27 29  1  0
 29 30  1  0
 30 31  1  0
 31 32  1  0
 31 33  1  0
 33 34  1  0
 34 35  1  0
 34 36  1  0
 33 37  1  0
 33 38  1  0
 30 39  1  0
 30 40  1  0
 29 41  1  0
 26 42  1  0
 26 43  1  0
 25 44  1  0
 44 45  2  0
 44 46  1  0
 46 47  2  0
 47 48  1  0
 48 49  2  0
 49 50  1  0
 49 51  1  0
 51 52  2  0
 51 53  1  0
 48 54  1  0
 47 55  1  0
 24 56  1  0
 24 57  1  0
  3 58  1  0
  3 59  1  0
  2 60  1  1
  1 61  1  0
  1 62  1  0
  1 63  1  0
 23  2  1  0
 34 31  1  0
 52 46  1  0
 14  5  1  0
 52 23  1  0
 14  9  1  0
M  END
>  <cnnaffinities>  (82) 
[6.75818, 6.29963, 6.71204, 6.62796, 5.8943, 5.99755]

>  <score>  (82) 
6.75818

>  <index>  (82) 
84

>  <Smiles>  (82) 
C([C@]1(C(N(c2c(nc(c3c(c(c(c(c23)[H])[H])[H])[H])[H])[H])C(=O)[C@]21C(N(C(C(=O)N(C(C1(F)C(C1([H])[H])([H])[H])([H])[H])[H])([H])[H])C(=O)c1c(c(c(F)c(c21)[H])[H])[H])([H])[H])([H])[H])[H])([H])([H])[H]

>  <h>  (82) 
<NA>

>  <Training>  (82) 
True

>  <Success>  (82) 
True

>  <enamine_searched>  (82) 
False

>  <enamine_id>  (82) 
nan

$$$$

     RDKit          3D

 57 62  0  0  0  0  0  0  0  0999 V2000
   -9.2763    1.0467  -29.3084 C   0  0  0  0  0  0  0  0  0  0  0  0
   -9.1690    1.3711  -27.9017 N   0  0  0  0  0  0  0  0  0  0  0  0
   -8.2863    0.6887  -27.1284 C   0  0  0  0  0  0  0  0  0  0  0  0
   -7.5390   -0.1767  -27.5579 O   0  0  0  0  0  0  0  0  0  0  0  0
   -8.3061    1.0822  -25.6511 C   0  0  0  0  0  0  0  0  0  0  0  0
   -9.1518    0.2015  -24.8732 N   0  0  0  0  0  0  0  0  0  0  0  0
   -8.6621   -1.1202  -24.5231 C   0  0  0  0  0  0  0  0  0  0  0  0
   -8.9775   -1.4869  -23.0532 C   0  0  2  0  0  0  0  0  0  0  0  0
   -8.1728   -0.5766  -22.1012 C   0  0  0  0  0  0  0  0  0  0  0  0
   -8.1780    0.6339  -22.0799 O   0  0  0  0  0  0  0  0  0  0  0  0
   -7.4160   -1.3593  -21.2555 N   0  0  0  0  0  0  0  0  0  0  0  0
   -6.6069   -0.8416  -20.2234 C   0  0  0  0  0  0  0  0  0  0  0  0
   -6.9069   -1.1376  -18.9186 C   0  0  0  0  0  0  0  0  0  0  0  0
   -6.1560   -0.7726  -17.8551 N   0  0  0  0  0  0  0  0  0  0  0  0
   -5.0956   -0.0386  -18.0987 C   0  0  0  0  0  0  0  0  0  0  0  0
   -4.7106    0.3999  -19.3991 C   0  0  0  0  0  0  0  0  0  0  0  0
   -3.6091    1.2740  -19.6032 C   0  0  0  0  0  0  0  0  0  0  0  0
   -3.2080    1.5954  -20.8703 C   0  0  0  0  0  0  0  0  0  0  0  0
   -3.8843    1.0643  -21.9903 C   0  0  0  0  0  0  0  0  0  0  0  0
   -4.9763    0.2535  -21.8188 C   0  0  0  0  0  0  0  0  0  0  0  0
   -5.4449   -0.0598  -20.5109 C   0  0  0  0  0  0  0  0  0  0  0  0
   -5.4938   -0.1474  -22.6833 H   0  0  0  0  0  0  0  0  0  0  0  0
   -3.5332    1.2993  -22.9904 H   0  0  0  0  0  0  0  0  0  0  0  0
   -2.3562    2.2502  -21.0291 H   0  0  0  0  0  0  0  0  0  0  0  0
   -3.1072    1.6903  -18.7345 H   0  0  0  0  0  0  0  0  0  0  0  0
   -4.4758    0.2436  -17.2480 H   0  0  0  0  0  0  0  0  0  0  0  0
   -7.8260   -1.6791  -18.6967 H   0  0  0  0  0  0  0  0  0  0  0  0
   -7.6399   -2.7732  -21.3951 C   0  0  0  0  0  0  0  0  0  0  0  0
   -8.4867   -2.8915  -22.6520 C   0  0  0  0  0  0  0  0  0  0  0  0
   -9.3486   -4.1045  -22.8264 C   0  0  0  0  0  0  0  0  0  0  0  0
   -8.1020   -3.9537  -23.6480 C   0  0  0  0  0  0  0  0  0  0  0  0
   -7.2444   -4.5813  -23.4088 H   0  0  0  0  0  0  0  0  0  0  0  0
   -8.1993   -3.7189  -24.7036 H   0  0  0  0  0  0  0  0  0  0  0  0
   -9.3721   -4.8468  -22.0292 H   0  0  0  0  0  0  0  0  0  0  0  0
  -10.3023   -3.9617  -23.3250 H   0  0  0  0  0  0  0  0  0  0  0  0
   -6.6847   -3.3026  -21.4772 H   0  0  0  0  0  0  0  0  0  0  0  0
   -8.1663   -3.1706  -20.5233 H   0  0  0  0  0  0  0  0  0  0  0  0
  -10.4734   -1.2389  -22.8759 C   0  0  0  0  0  0  0  0  0  0  0  0
  -11.2044   -1.9719  -21.9424 C   0  0  0  0  0  0  0  0  0  0  0  0
  -12.5768   -1.8149  -21.8783 C   0  0  0  0  0  0  0  0  0  0  0  0
  -13.4848   -2.9596  -20.9364 Cl  0  0  0  0  0  0  0  0  0  0  0  0
  -13.2266   -0.7581  -22.5136 C   0  0  0  0  0  0  0  0  0  0  0  0
  -12.4854    0.0374  -23.3661 C   0  0  0  0  0  0  0  0  0  0  0  0
  -11.1483   -0.2519  -23.6117 C   0  0  0  0  0  0  0  0  0  0  0  0
  -10.4446    0.5662  -24.6439 C   0  0  0  0  0  0  0  0  0  0  0  0
  -10.9695    1.5133  -25.2251 O   0  0  0  0  0  0  0  0  0  0  0  0
  -12.9120    0.8901  -23.8792 H   0  0  0  0  0  0  0  0  0  0  0  0
  -14.2851   -0.5935  -22.3416 H   0  0  0  0  0  0  0  0  0  0  0  0
  -10.7136   -2.7046  -21.3078 H   0  0  0  0  0  0  0  0  0  0  0  0
   -7.5855   -1.1441  -24.7084 H   0  0  0  0  0  0  0  0  0  0  0  0
   -9.1387   -1.8674  -25.1703 H   0  0  0  0  0  0  0  0  0  0  0  0
   -8.6864    2.0992  -25.5220 H   0  0  0  0  0  0  0  0  0  0  0  0
   -7.2838    1.0076  -25.2596 H   0  0  0  0  0  0  0  0  0  0  0  0
   -9.9100    1.8952  -27.4549 H   0  0  0  0  0  0  0  0  0  0  0  0
   -9.5288   -0.0088  -29.4497 H   0  0  0  0  0  0  0  0  0  0  0  0
  -10.0437    1.6681  -29.7740 H   0  0  0  0  0  0  0  0  0  0  0  0
   -8.3236    1.2311  -29.8116 H   0  0  0  0  0  0  0  0  0  0  0  0
  1  2  1  0
  2  3  1  0
  3  4  2  0
  3  5  1  0
  5  6  1  0
  6  7  1  0
  8  7  1  6
  8  9  1  0
  9 10  2  0
  9 11  1  0
 11 12  1  0
 12 13  2  0
 13 14  1  0
 14 15  2  0
 15 16  1  0
 16 17  2  0
 17 18  1  0
 18 19  2  0
 19 20  1  0
 20 21  2  0
 20 22  1  0
 19 23  1  0
 18 24  1  0
 17 25  1  0
 15 26  1  0
 13 27  1  0
 11 28  1  0
 28 29  1  0
 29 30  1  0
 30 31  1  0
 31 32  1  0
 31 33  1  0
 30 34  1  0
 30 35  1  0
 28 36  1  0
 28 37  1  0
  8 38  1  0
 38 39  2  0
 39 40  1  0
 40 41  1  0
 40 42  2  0
 42 43  1  0
 43 44  2  0
 44 45  1  0
 45 46  2  0
 43 47  1  0
 42 48  1  0
 39 49  1  0
  7 50  1  0
  7 51  1  0
  5 52  1  0
  5 53  1  0
  2 54  1  0
  1 55  1  0
  1 56  1  0
  1 57  1  0
 45  6  1  0
 29  8  1  0
 44 38  1  0
 21 12  1  0
 31 29  1  0
 21 16  1  0
M  END
>  <cnnaffinities>  (83) 
[5.66302]

>  <score>  (83) 
5.66302

>  <index>  (83) 
85

>  <Smiles>  (83) 
C(N(C(=O)C(N1C([C@@]2(C(=O)N(c3c(nc(c4c(c(c(c(c34)[H])[H])[H])[H])[H])[H])C(C32C(C3([H])[H])([H])[H])([H])[H])c2c(c(Cl)c(c(c2C1=O)[H])[H])[H])([H])[H])([H])[H])[H])([H])([H])[H]

>  <h>  (83) 
<NA>

>  <Training>  (83) 
True

>  <Success>  (83) 
True

>  <enamine_searched>  (83) 
False

>  <enamine_id>  (83) 
nan

$$$$

     RDKit          3D

 43 45  0  0  0  0  0  0  0  0999 V2000
   -8.9913   -5.9688  -26.0060 C   0  0  0  0  0  0  0  0  0  0  0  0
   -8.3102   -5.0644  -24.9745 C   0  0  1  0  0  0  0  0  0  0  0  0
   -9.2559   -3.9851  -24.4462 C   0  0  0  0  0  0  0  0  0  0  0  0
   -8.5622   -3.0065  -23.4907 C   0  0  0  0  0  0  0  0  0  0  0  0
   -7.5638   -3.6211  -22.6016 N   0  0  0  0  0  0  0  0  0  0  0  0
   -6.7696   -2.7997  -21.8375 C   0  0  0  0  0  0  0  0  0  0  0  0
   -5.6219   -3.1024  -21.5437 O   0  0  0  0  0  0  0  0  0  0  0  0
   -7.4114   -1.4954  -21.3072 C   0  0  0  0  0  0  0  0  0  0  0  0
   -6.6016   -0.8484  -20.2170 C   0  0  0  0  0  0  0  0  0  0  0  0
   -6.9117   -1.0964  -18.9059 C   0  0  0  0  0  0  0  0  0  0  0  0
   -6.1712   -0.7071  -17.8372 N   0  0  0  0  0  0  0  0  0  0  0  0
   -5.0955    0.0031  -18.0805 C   0  0  0  0  0  0  0  0  0  0  0  0
   -4.7054    0.4352  -19.3839 C   0  0  0  0  0  0  0  0  0  0  0  0
   -3.6047    1.3084  -19.6119 C   0  0  0  0  0  0  0  0  0  0  0  0
   -3.2160    1.6175  -20.8884 C   0  0  0  0  0  0  0  0  0  0  0  0
   -3.9151    1.0825  -21.9933 C   0  0  0  0  0  0  0  0  0  0  0  0
   -5.0081    0.2737  -21.7981 C   0  0  0  0  0  0  0  0  0  0  0  0
   -5.4497   -0.0470  -20.4858 C   0  0  0  0  0  0  0  0  0  0  0  0
   -5.5351   -0.1493  -22.6467 H   0  0  0  0  0  0  0  0  0  0  0  0
   -3.5769    1.3139  -23.0001 H   0  0  0  0  0  0  0  0  0  0  0  0
   -2.3530    2.2548  -21.0634 H   0  0  0  0  0  0  0  0  0  0  0  0
   -3.0932    1.7332  -18.7503 H   0  0  0  0  0  0  0  0  0  0  0  0
   -4.4765    0.2548  -17.2143 H   0  0  0  0  0  0  0  0  0  0  0  0
   -7.7988   -1.6772  -18.6432 H   0  0  0  0  0  0  0  0  0  0  0  0
   -8.3909   -1.7580  -20.8869 H   0  0  0  0  0  0  0  0  0  0  0  0
   -7.6067   -0.7929  -22.1296 H   0  0  0  0  0  0  0  0  0  0  0  0
   -7.0611   -5.0089  -22.7361 C   0  0  1  0  0  0  0  0  0  0  0  0
   -7.1500   -5.7299  -21.3930 C   0  0  0  0  0  0  0  0  0  0  0  0
   -8.2073   -5.7513  -21.1106 H   0  0  0  0  0  0  0  0  0  0  0  0
   -6.5622   -5.2271  -20.6235 H   0  0  0  0  0  0  0  0  0  0  0  0
   -6.8028   -6.7635  -21.4842 H   0  0  0  0  0  0  0  0  0  0  0  0
   -7.8435   -5.8440  -23.7540 C   0  0  0  0  0  0  0  0  0  0  0  0
   -8.7352   -6.2652  -23.2585 H   0  0  0  0  0  0  0  0  0  0  0  0
   -7.2098   -6.6954  -24.0388 H   0  0  0  0  0  0  0  0  0  0  0  0
   -6.0136   -4.9079  -23.0508 H   0  0  0  0  0  0  0  0  0  0  0  0
   -8.0677   -2.2262  -24.0937 H   0  0  0  0  0  0  0  0  0  0  0  0
   -9.3119   -2.4961  -22.8716 H   0  0  0  0  0  0  0  0  0  0  0  0
   -9.6796   -3.4106  -25.2804 H   0  0  0  0  0  0  0  0  0  0  0  0
  -10.0938   -4.4846  -23.9350 H   0  0  0  0  0  0  0  0  0  0  0  0
   -7.4336   -4.5880  -25.4466 H   0  0  0  0  0  0  0  0  0  0  0  0
   -9.3145   -5.3892  -26.8763 H   0  0  0  0  0  0  0  0  0  0  0  0
   -9.8791   -6.4629  -25.5879 H   0  0  0  0  0  0  0  0  0  0  0  0
   -8.3107   -6.7524  -26.3565 H   0  0  0  0  0  0  0  0  0  0  0  0
  1  2  1  0
  2  3  1  0
  3  4  1  0
  4  5  1  0
  5  6  1  0
  6  7  2  0
  6  8  1  0
  8  9  1  0
  9 10  2  0
 10 11  1  0
 11 12  2  0
 12 13  1  0
 13 14  2  0
 14 15  1  0
 15 16  2  0
 16 17  1  0
 17 18  2  0
 17 19  1  0
 16 20  1  0
 15 21  1  0
 14 22  1  0
 12 23  1  0
 10 24  1  0
  8 25  1  0
  8 26  1  0
  5 27  1  0
 27 28  1  0
 28 29  1  0
 28 30  1  0
 28 31  1  0
 27 32  1  0
 32 33  1  0
 32 34  1  0
 27 35  1  6
  4 36  1  0
  4 37  1  0
  3 38  1  0
  3 39  1  0
  2 40  1  6
  1 41  1  0
  1 42  1  0
  1 43  1  0
 32  2  1  0
 18  9  1  0
 18 13  1  0
M  END
>  <cnnaffinities>  (84) 
[5.07502, 5.15139, 5.17552, 4.98697, 4.92504, 4.98462]

>  <score>  (84) 
5.07502

>  <index>  (84) 
86

>  <Smiles>  (84) 
C([C@]1(C(C(N(C(=O)C(c2c(nc(c3c(c(c(c(c23)[H])[H])[H])[H])[H])[H])([H])[H])[C@@](C([H])([H])[H])(C1([H])[H])[H])([H])[H])([H])[H])[H])([H])([H])[H]

>  <h>  (84) 
<NA>

>  <Training>  (84) 
True

>  <Success>  (84) 
True

>  <enamine_searched>  (84) 
False

>  <enamine_id>  (84) 
nan

$$$$

     RDKit          3D

 59 64  0  0  0  0  0  0  0  0999 V2000
   -8.2839   -4.1679  -23.7580 C   0  0  0  0  0  0  0  0  0  0  0  0
   -8.4687   -3.2139  -22.5808 C   0  0  1  0  0  0  0  0  0  0  0  0
   -7.1302   -2.5782  -22.1696 C   0  0  0  0  0  0  0  0  0  0  0  0
   -7.5210   -1.4050  -21.4173 N   0  0  0  0  0  0  0  0  0  0  0  0
   -6.7441   -0.9374  -20.3287 C   0  0  0  0  0  0  0  0  0  0  0  0
   -7.0375   -1.3210  -19.0466 C   0  0  0  0  0  0  0  0  0  0  0  0
   -6.2708   -1.0309  -17.9676 N   0  0  0  0  0  0  0  0  0  0  0  0
   -5.1836   -0.3223  -18.1572 C   0  0  0  0  0  0  0  0  0  0  0  0
   -4.7687    0.1601  -19.4298 C   0  0  0  0  0  0  0  0  0  0  0  0
   -3.6008    0.9541  -19.5936 C   0  0  0  0  0  0  0  0  0  0  0  0
   -3.2600    1.4197  -20.8347 C   0  0  0  0  0  0  0  0  0  0  0  0
   -4.0273    1.0646  -21.9672 C   0  0  0  0  0  0  0  0  0  0  0  0
   -5.1369    0.2687  -21.8408 C   0  0  0  0  0  0  0  0  0  0  0  0
   -5.5564   -0.1743  -20.5590 C   0  0  0  0  0  0  0  0  0  0  0  0
   -5.6954   -0.0453  -22.7198 H   0  0  0  0  0  0  0  0  0  0  0  0
   -3.7249    1.4253  -22.9472 H   0  0  0  0  0  0  0  0  0  0  0  0
   -2.3804    2.0439  -20.9579 H   0  0  0  0  0  0  0  0  0  0  0  0
   -2.9909    1.1863  -18.7221 H   0  0  0  0  0  0  0  0  0  0  0  0
   -4.5651   -0.1111  -17.2821 H   0  0  0  0  0  0  0  0  0  0  0  0
   -7.9267   -1.9202  -18.8585 H   0  0  0  0  0  0  0  0  0  0  0  0
   -8.8375   -1.0468  -21.6234 C   0  0  0  0  0  0  0  0  0  0  0  0
   -9.3996   -0.1411  -21.0459 O   0  0  0  0  0  0  0  0  0  0  0  0
   -9.4229   -1.9852  -22.7320 C   0  0  1  0  0  0  0  0  0  0  0  0
   -9.2429   -1.3015  -24.1139 C   0  0  0  0  0  0  0  0  0  0  0  0
  -10.0984   -0.1351  -24.2603 N   0  0  0  0  0  0  0  0  0  0  0  0
   -9.5848    1.0414  -24.9330 C   0  0  0  0  0  0  0  0  0  0  0  0
   -8.7265    1.9040  -24.0511 C   0  0  0  0  0  0  0  0  0  0  0  0
   -9.0730    2.5955  -22.9107 C   0  0  0  0  0  0  0  0  0  0  0  0
   -7.9064    3.2987  -22.5434 C   0  0  0  0  0  0  0  0  0  0  0  0
   -6.9134    3.0577  -23.3929 N   0  0  0  0  0  0  0  0  0  0  0  0
   -7.4256    2.2041  -24.2958 N   0  0  0  0  0  0  0  0  0  0  0  0
   -6.5772    1.5846  -25.2909 C   0  0  0  0  0  0  0  0  0  0  0  0
   -5.5412    1.8292  -25.0619 H   0  0  0  0  0  0  0  0  0  0  0  0
   -6.6958    0.4961  -25.2621 H   0  0  0  0  0  0  0  0  0  0  0  0
   -6.8222    1.9346  -26.2985 H   0  0  0  0  0  0  0  0  0  0  0  0
   -7.7258    3.9416  -21.6892 H   0  0  0  0  0  0  0  0  0  0  0  0
  -10.0191    2.5412  -22.3925 H   0  0  0  0  0  0  0  0  0  0  0  0
  -10.4693    1.6121  -25.2256 H   0  0  0  0  0  0  0  0  0  0  0  0
   -9.0659    0.7229  -25.8443 H   0  0  0  0  0  0  0  0  0  0  0  0
  -11.4205   -0.1606  -23.9159 C   0  0  0  0  0  0  0  0  0  0  0  0
  -12.2281    0.6689  -24.3123 O   0  0  0  0  0  0  0  0  0  0  0  0
  -11.8389   -1.2761  -23.0132 C   0  0  0  0  0  0  0  0  0  0  0  0
  -13.1794   -1.2833  -22.6221 C   0  0  0  0  0  0  0  0  0  0  0  0
  -13.6240   -2.1948  -21.6924 C   0  0  0  0  0  0  0  0  0  0  0  0
  -12.7177   -3.1417  -21.2371 C   0  0  0  0  0  0  0  0  0  0  0  0
  -13.1337   -3.9726  -20.2709 F   0  0  0  0  0  0  0  0  0  0  0  0
  -11.4010   -3.2045  -21.6549 C   0  0  0  0  0  0  0  0  0  0  0  0
  -10.9129   -2.2120  -22.5152 C   0  0  0  0  0  0  0  0  0  0  0  0
  -10.7699   -3.9813  -21.2324 H   0  0  0  0  0  0  0  0  0  0  0  0
  -14.6335   -2.1963  -21.2922 H   0  0  0  0  0  0  0  0  0  0  0  0
  -13.8394   -0.5222  -23.0262 H   0  0  0  0  0  0  0  0  0  0  0  0
   -9.4773   -2.0457  -24.8867 H   0  0  0  0  0  0  0  0  0  0  0  0
   -8.2017   -0.9869  -24.2511 H   0  0  0  0  0  0  0  0  0  0  0  0
   -6.4989   -3.2343  -21.5610 H   0  0  0  0  0  0  0  0  0  0  0  0
   -6.5563   -2.2965  -23.0659 H   0  0  0  0  0  0  0  0  0  0  0  0
   -8.8208   -3.7912  -21.7193 H   0  0  0  0  0  0  0  0  0  0  0  0
   -7.8393   -3.6571  -24.6174 H   0  0  0  0  0  0  0  0  0  0  0  0
   -9.2149   -4.6297  -24.0943 H   0  0  0  0  0  0  0  0  0  0  0  0
   -7.5972   -4.9768  -23.4854 H   0  0  0  0  0  0  0  0  0  0  0  0
  1  2  1  0
  2  3  1  0
  3  4  1  0
  4  5  1  0
  5  6  2  0
  6  7  1  0
  7  8  2  0
  8  9  1  0
  9 10  2  0
 10 11  1  0
 11 12  2  0
 12 13  1  0
 13 14  2  0
 13 15  1  0
 12 16  1  0
 11 17  1  0
 10 18  1  0
  8 19  1  0
  6 20  1  0
  4 21  1  0
 21 22  2  0
 21 23  1  0
 23 24  1  6
 24 25  1  0
 25 26  1  0
 26 27  1  0
 27 28  2  0
 28 29  1  0
 29 30  2  0
 30 31  1  0
 31 32  1  0
 32 33  1  0
 32 34  1  0
 32 35  1  0
 29 36  1  0
 28 37  1  0
 26 38  1  0
 26 39  1  0
 25 40  1  0
 40 41  2  0
 40 42  1  0
 42 43  2  0
 43 44  1  0
 44 45  2  0
 45 46  1  0
 45 47  1  0
 47 48  2  0
 47 49  1  0
 44 50  1  0
 43 51  1  0
 24 52  1  0
 24 53  1  0
  3 54  1  0
  3 55  1  0
  2 56  1  1
  1 57  1  0
  1 58  1  0
  1 59  1  0
 23  2  1  0
 31 27  1  0
 48 42  1  0
 14  5  1  0
 48 23  1  0
 14  9  1  0
M  END
>  <cnnaffinities>  (85) 
[6.63585]

>  <score>  (85) 
6.63585

>  <index>  (85) 
87

>  <Smiles>  (85) 
C([C@]1(C(N(c2c(nc(c3c(c(c(c(c23)[H])[H])[H])[H])[H])[H])C(=O)[C@]21C(N(C(c1c(c(nn1C([H])([H])[H])[H])[H])([H])[H])C(=O)c1c(c(c(F)c(c21)[H])[H])[H])([H])[H])([H])[H])[H])([H])([H])[H]

>  <h>  (85) 
<NA>

>  <Training>  (85) 
True

>  <Success>  (85) 
True

>  <enamine_searched>  (85) 
False

>  <enamine_id>  (85) 
nan

$$$$

     RDKit          3D

 40 42  0  0  0  0  0  0  0  0999 V2000
   -8.4147    0.7645  -21.6026 O   0  0  0  0  0  0  0  0  0  0  0  0
   -8.5516   -0.4369  -21.7827 C   0  0  0  0  0  0  0  0  0  0  0  0
   -7.4917   -1.4252  -21.2968 C   0  0  0  0  0  0  0  0  0  0  0  0
   -6.6196   -0.8530  -20.2121 C   0  0  0  0  0  0  0  0  0  0  0  0
   -6.9152   -1.1141  -18.9031 C   0  0  0  0  0  0  0  0  0  0  0  0
   -6.1546   -0.7607  -17.8338 N   0  0  0  0  0  0  0  0  0  0  0  0
   -5.0876   -0.0377  -18.0877 C   0  0  0  0  0  0  0  0  0  0  0  0
   -4.7169    0.4090  -19.3855 C   0  0  0  0  0  0  0  0  0  0  0  0
   -3.6198    1.2822  -19.6036 C   0  0  0  0  0  0  0  0  0  0  0  0
   -3.2463    1.6246  -20.8740 C   0  0  0  0  0  0  0  0  0  0  0  0
   -3.9639    1.1240  -21.9844 C   0  0  0  0  0  0  0  0  0  0  0  0
   -5.0627    0.3238  -21.7969 C   0  0  0  0  0  0  0  0  0  0  0  0
   -5.4827   -0.0398  -20.4911 C   0  0  0  0  0  0  0  0  0  0  0  0
   -5.6241   -0.0303  -22.6568 H   0  0  0  0  0  0  0  0  0  0  0  0
   -3.6325    1.3767  -22.9883 H   0  0  0  0  0  0  0  0  0  0  0  0
   -2.3934    2.2763  -21.0426 H   0  0  0  0  0  0  0  0  0  0  0  0
   -3.0986    1.6918  -18.7388 H   0  0  0  0  0  0  0  0  0  0  0  0
   -4.4512    0.2384  -17.2441 H   0  0  0  0  0  0  0  0  0  0  0  0
   -7.8251   -1.6681  -18.6647 H   0  0  0  0  0  0  0  0  0  0  0  0
   -6.8952   -1.7704  -22.1522 H   0  0  0  0  0  0  0  0  0  0  0  0
   -8.0074   -2.3079  -20.8993 H   0  0  0  0  0  0  0  0  0  0  0  0
   -9.6627   -0.9565  -22.3902 N   0  0  0  0  0  0  0  0  0  0  0  0
  -10.7628   -0.0450  -22.6660 C   0  0  0  0  0  0  0  0  0  0  0  0
  -12.0859   -0.7828  -22.5788 C   0  0  0  0  0  0  0  0  0  0  0  0
  -12.1965   -1.8179  -23.7063 C   0  0  0  0  0  0  0  0  0  0  0  0
  -13.1829   -2.9085  -23.3418 C   0  0  0  0  0  0  0  0  0  0  0  0
  -12.7465   -3.5764  -22.2290 F   0  0  0  0  0  0  0  0  0  0  0  0
  -14.4069   -2.3873  -23.0420 F   0  0  0  0  0  0  0  0  0  0  0  0
  -13.3166   -3.6534  -24.1344 H   0  0  0  0  0  0  0  0  0  0  0  0
  -10.8078   -2.4211  -24.0030 C   0  0  0  0  0  0  0  0  0  0  0  0
   -9.8482   -2.3434  -22.8096 C   0  0  0  0  0  0  0  0  0  0  0  0
   -8.8807   -2.7568  -23.1071 H   0  0  0  0  0  0  0  0  0  0  0  0
  -10.2270   -2.9534  -21.9813 H   0  0  0  0  0  0  0  0  0  0  0  0
  -10.9025   -3.4651  -24.3266 H   0  0  0  0  0  0  0  0  0  0  0  0
  -10.3487   -1.8705  -24.8316 H   0  0  0  0  0  0  0  0  0  0  0  0
  -12.5933   -1.3460  -24.6133 H   0  0  0  0  0  0  0  0  0  0  0  0
  -12.0982   -1.3359  -21.6421 H   0  0  0  0  0  0  0  0  0  0  0  0
  -12.9298   -0.0826  -22.5672 H   0  0  0  0  0  0  0  0  0  0  0  0
  -10.6901    0.7712  -21.9513 H   0  0  0  0  0  0  0  0  0  0  0  0
  -10.6350    0.3904  -23.6635 H   0  0  0  0  0  0  0  0  0  0  0  0
  1  2  2  0
  2  3  1  0
  3  4  1  0
  4  5  2  0
  5  6  1  0
  6  7  2  0
  7  8  1  0
  8  9  2  0
  9 10  1  0
 10 11  2  0
 11 12  1  0
 12 13  2  0
 12 14  1  0
 11 15  1  0
 10 16  1  0
  9 17  1  0
  7 18  1  0
  5 19  1  0
  3 20  1  0
  3 21  1  0
  2 22  1  0
 22 23  1  0
 23 24  1  0
 24 25  1  0
 25 26  1  0
 26 27  1  0
 26 28  1  0
 26 29  1  0
 25 30  1  0
 30 31  1  0
 31 32  1  0
 31 33  1  0
 30 34  1  0
 30 35  1  0
 25 36  1  0
 24 37  1  0
 24 38  1  0
 23 39  1  0
 23 40  1  0
 13  4  1  0
 31 22  1  0
 13  8  1  0
M  END
>  <cnnaffinities>  (86) 
[5.06259, 4.86261, 4.88275, 5.21465, 5.2146, 4.82572, 4.82569, 4.82472, 5.07711, 4.83687, 4.82084, 4.82219]

>  <score>  (86) 
5.06259

>  <index>  (86) 
88

>  <Smiles>  (86) 
O=C(C(c1c(nc(c2c(c(c(c(c12)[H])[H])[H])[H])[H])[H])([H])[H])N1C(C(C(C(F)(F)[H])(C(C1([H])[H])([H])[H])[H])([H])[H])([H])[H]

>  <h>  (86) 
<NA>

>  <Training>  (86) 
True

>  <Success>  (86) 
True

>  <enamine_searched>  (86) 
False

>  <enamine_id>  (86) 
nan

$$$$

     RDKit          3D

 43 45  0  0  0  0  0  0  0  0999 V2000
  -13.0087   -1.4682  -24.7603 C   0  0  0  0  0  0  0  0  0  0  0  0
  -12.2370   -1.9751  -23.5458 C   0  0  0  0  0  0  0  0  0  0  0  0
  -13.0264   -3.1124  -22.8865 C   0  0  0  0  0  0  0  0  0  0  0  0
  -13.2076   -3.9240  -23.6008 H   0  0  0  0  0  0  0  0  0  0  0  0
  -12.4904   -3.5325  -22.0279 H   0  0  0  0  0  0  0  0  0  0  0  0
  -13.9996   -2.7534  -22.5289 H   0  0  0  0  0  0  0  0  0  0  0  0
  -10.8328   -2.4503  -23.9726 C   0  0  0  0  0  0  0  0  0  0  0  0
   -9.7888   -2.3464  -22.8551 C   0  0  0  0  0  0  0  0  0  0  0  0
   -9.6455   -0.9574  -22.4153 N   0  0  0  0  0  0  0  0  0  0  0  0
   -8.5547   -0.4282  -21.7883 C   0  0  0  0  0  0  0  0  0  0  0  0
   -8.4343    0.7671  -21.5920 O   0  0  0  0  0  0  0  0  0  0  0  0
   -7.4934   -1.4180  -21.2976 C   0  0  0  0  0  0  0  0  0  0  0  0
   -6.6223   -0.8500  -20.2136 C   0  0  0  0  0  0  0  0  0  0  0  0
   -6.9158   -1.1155  -18.9019 C   0  0  0  0  0  0  0  0  0  0  0  0
   -6.1524   -0.7638  -17.8342 N   0  0  0  0  0  0  0  0  0  0  0  0
   -5.0877   -0.0389  -18.0864 C   0  0  0  0  0  0  0  0  0  0  0  0
   -4.7184    0.4067  -19.3879 C   0  0  0  0  0  0  0  0  0  0  0  0
   -3.6192    1.2813  -19.6031 C   0  0  0  0  0  0  0  0  0  0  0  0
   -3.2479    1.6231  -20.8743 C   0  0  0  0  0  0  0  0  0  0  0  0
   -3.9632    1.1248  -21.9846 C   0  0  0  0  0  0  0  0  0  0  0  0
   -5.0649    0.3228  -21.7991 C   0  0  0  0  0  0  0  0  0  0  0  0
   -5.4818   -0.0398  -20.4887 C   0  0  0  0  0  0  0  0  0  0  0  0
   -5.6234   -0.0312  -22.6572 H   0  0  0  0  0  0  0  0  0  0  0  0
   -3.6323    1.3765  -22.9886 H   0  0  0  0  0  0  0  0  0  0  0  0
   -2.3945    2.2762  -21.0416 H   0  0  0  0  0  0  0  0  0  0  0  0
   -3.1007    1.6898  -18.7382 H   0  0  0  0  0  0  0  0  0  0  0  0
   -4.4518    0.2446  -17.2454 H   0  0  0  0  0  0  0  0  0  0  0  0
   -7.8278   -1.6685  -18.6679 H   0  0  0  0  0  0  0  0  0  0  0  0
   -8.0145   -2.2983  -20.9047 H   0  0  0  0  0  0  0  0  0  0  0  0
   -6.8966   -1.7637  -22.1534 H   0  0  0  0  0  0  0  0  0  0  0  0
  -10.7515   -0.0504  -22.6974 C   0  0  0  0  0  0  0  0  0  0  0  0
  -12.0665   -0.8072  -22.5512 C   0  0  0  0  0  0  0  0  0  0  0  0
  -12.9190   -0.1196  -22.5978 H   0  0  0  0  0  0  0  0  0  0  0  0
  -12.0473   -1.2543  -21.5649 H   0  0  0  0  0  0  0  0  0  0  0  0
  -10.6745    0.7726  -21.9855 H   0  0  0  0  0  0  0  0  0  0  0  0
  -10.6193    0.3858  -23.6963 H   0  0  0  0  0  0  0  0  0  0  0  0
   -8.8239   -2.6965  -23.2365 H   0  0  0  0  0  0  0  0  0  0  0  0
  -10.0670   -2.9963  -22.0124 H   0  0  0  0  0  0  0  0  0  0  0  0
  -10.8805   -3.4782  -24.3547 H   0  0  0  0  0  0  0  0  0  0  0  0
  -10.4890   -1.8092  -24.7935 H   0  0  0  0  0  0  0  0  0  0  0  0
  -14.0299   -1.1863  -24.4828 H   0  0  0  0  0  0  0  0  0  0  0  0
  -12.5075   -0.5798  -25.1382 H   0  0  0  0  0  0  0  0  0  0  0  0
  -13.0712   -2.2079  -25.5636 H   0  0  0  0  0  0  0  0  0  0  0  0
  1  2  1  0
  2  3  1  0
  3  4  1  0
  3  5  1  0
  3  6  1  0
  2  7  1  0
  7  8  1  0
  8  9  1  0
  9 10  1  0
 10 11  2  0
 10 12  1  0
 12 13  1  0
 13 14  2  0
 14 15  1  0
 15 16  2  0
 16 17  1  0
 17 18  2  0
 18 19  1  0
 19 20  2  0
 20 21  1  0
 21 22  2  0
 21 23  1  0
 20 24  1  0
 19 25  1  0
 18 26  1  0
 16 27  1  0
 14 28  1  0
 12 29  1  0
 12 30  1  0
  9 31  1  0
 31 32  1  0
 32 33  1  0
 32 34  1  0
 31 35  1  0
 31 36  1  0
  8 37  1  0
  8 38  1  0
  7 39  1  0
  7 40  1  0
  1 41  1  0
  1 42  1  0
  1 43  1  0
 32  2  1  0
 22 13  1  0
 22 17  1  0
M  END
>  <cnnaffinities>  (87) 
[4.79629, 4.7705, 5.16369, 4.99265, 4.99264, 4.99269, 4.99267, 4.81504, 4.81501, 4.81506]

>  <score>  (87) 
4.79629

>  <index>  (87) 
89

>  <Smiles>  (87) 
C(C1(C([H])([H])[H])C(C(N(C(=O)C(c2c(nc(c3c(c(c(c(c23)[H])[H])[H])[H])[H])[H])([H])[H])C(C1([H])[H])([H])[H])([H])[H])([H])[H])([H])([H])[H]

>  <h>  (87) 
<NA>

>  <Training>  (87) 
True

>  <Success>  (87) 
True

>  <enamine_searched>  (87) 
False

>  <enamine_id>  (87) 
nan

$$$$

     RDKit          3D

 64 68  0  0  0  0  0  0  0  0999 V2000
   -7.4774    3.2631  -21.7912 C   0  0  0  0  0  0  0  0  0  0  0  0
   -8.4926    2.7817  -22.7193 N   0  0  0  0  0  0  0  0  0  0  0  0
   -8.0528    2.0795  -23.8049 C   0  0  0  0  0  0  0  0  0  0  0  0
   -6.8631    1.9191  -24.0406 O   0  0  0  0  0  0  0  0  0  0  0  0
   -9.1199    1.4958  -24.7294 C   0  0  0  0  0  0  0  0  0  0  0  0
   -9.7115    0.3066  -24.1482 N   0  0  0  0  0  0  0  0  0  0  0  0
   -8.9093   -0.9060  -24.0725 C   0  0  0  0  0  0  0  0  0  0  0  0
   -9.1857   -1.6736  -22.7587 C   0  0  2  0  0  0  0  0  0  0  0  0
   -8.6373   -0.8657  -21.5630 C   0  0  0  0  0  0  0  0  0  0  0  0
   -9.1655    0.0755  -21.0041 O   0  0  0  0  0  0  0  0  0  0  0  0
   -7.4075   -1.3839  -21.2397 N   0  0  0  0  0  0  0  0  0  0  0  0
   -6.6188   -0.8492  -20.2022 C   0  0  0  0  0  0  0  0  0  0  0  0
   -6.9300   -1.1268  -18.8990 C   0  0  0  0  0  0  0  0  0  0  0  0
   -6.1532   -0.7850  -17.8449 N   0  0  0  0  0  0  0  0  0  0  0  0
   -5.0841   -0.0671  -18.0956 C   0  0  0  0  0  0  0  0  0  0  0  0
   -4.7114    0.3860  -19.3938 C   0  0  0  0  0  0  0  0  0  0  0  0
   -3.6202    1.2687  -19.6085 C   0  0  0  0  0  0  0  0  0  0  0  0
   -3.2617    1.6264  -20.8786 C   0  0  0  0  0  0  0  0  0  0  0  0
   -3.9800    1.1355  -21.9915 C   0  0  0  0  0  0  0  0  0  0  0  0
   -5.0731    0.3247  -21.8099 C   0  0  0  0  0  0  0  0  0  0  0  0
   -5.4722   -0.0569  -20.5005 C   0  0  0  0  0  0  0  0  0  0  0  0
   -5.6484   -0.0059  -22.6707 H   0  0  0  0  0  0  0  0  0  0  0  0
   -3.6679    1.4046  -22.9958 H   0  0  0  0  0  0  0  0  0  0  0  0
   -2.4159    2.2861  -21.0414 H   0  0  0  0  0  0  0  0  0  0  0  0
   -3.0966    1.6617  -18.7402 H   0  0  0  0  0  0  0  0  0  0  0  0
   -4.4490    0.2012  -17.2491 H   0  0  0  0  0  0  0  0  0  0  0  0
   -7.8486   -1.6606  -18.6689 H   0  0  0  0  0  0  0  0  0  0  0  0
   -7.0226   -2.5634  -21.9781 C   0  0  0  0  0  0  0  0  0  0  0  0
   -8.3353   -2.9746  -22.6668 C   0  0  2  0  0  0  0  0  0  0  0  0
   -8.1186   -3.7416  -23.9709 C   0  0  0  0  0  0  0  0  0  0  0  0
   -7.4210   -5.3562  -23.6470 S   0  0  0  0  0  0  0  0  0  0  0  0
   -6.0422   -5.2134  -23.2089 O   0  0  0  0  0  0  0  0  0  0  0  0
   -8.3510   -6.0924  -22.8028 O   0  0  0  0  0  0  0  0  0  0  0  0
   -7.3320   -5.9973  -25.1927 N   0  0  0  0  0  0  0  0  0  0  0  0
   -8.5557   -6.4550  -25.8523 C   0  0  0  0  0  0  0  0  0  0  0  0
   -9.1453   -5.5992  -26.1973 H   0  0  0  0  0  0  0  0  0  0  0  0
   -8.2584   -7.0118  -26.7443 H   0  0  0  0  0  0  0  0  0  0  0  0
   -9.1732   -7.0988  -25.2160 H   0  0  0  0  0  0  0  0  0  0  0  0
   -6.5865   -6.6829  -25.1856 H   0  0  0  0  0  0  0  0  0  0  0  0
   -7.4284   -3.2343  -24.6501 H   0  0  0  0  0  0  0  0  0  0  0  0
   -9.0651   -3.8970  -24.4952 H   0  0  0  0  0  0  0  0  0  0  0  0
   -8.8463   -3.6637  -21.9929 H   0  0  0  0  0  0  0  0  0  0  0  0
   -6.6588   -3.3391  -21.2991 H   0  0  0  0  0  0  0  0  0  0  0  0
   -6.2195   -2.3490  -22.7004 H   0  0  0  0  0  0  0  0  0  0  0  0
  -10.6860   -1.8368  -22.6215 C   0  0  0  0  0  0  0  0  0  0  0  0
  -11.2313   -2.8259  -21.8000 C   0  0  0  0  0  0  0  0  0  0  0  0
  -12.5962   -2.8677  -21.6014 C   0  0  0  0  0  0  0  0  0  0  0  0
  -13.0967   -3.7787  -20.7547 F   0  0  0  0  0  0  0  0  0  0  0  0
  -13.4824   -1.9969  -22.2207 C   0  0  0  0  0  0  0  0  0  0  0  0
  -12.9481   -1.0099  -23.0183 C   0  0  0  0  0  0  0  0  0  0  0  0
  -11.5688   -0.9059  -23.1881 C   0  0  0  0  0  0  0  0  0  0  0  0
  -11.0627    0.2814  -23.9425 C   0  0  0  0  0  0  0  0  0  0  0  0
  -11.8051    1.1757  -24.3247 O   0  0  0  0  0  0  0  0  0  0  0  0
  -13.5724   -0.2765  -23.5123 H   0  0  0  0  0  0  0  0  0  0  0  0
  -14.5488   -2.0929  -22.0529 H   0  0  0  0  0  0  0  0  0  0  0  0
  -10.6168   -3.5579  -21.2902 H   0  0  0  0  0  0  0  0  0  0  0  0
   -7.8513   -0.6282  -24.1398 H   0  0  0  0  0  0  0  0  0  0  0  0
   -9.1433   -1.5611  -24.9228 H   0  0  0  0  0  0  0  0  0  0  0  0
   -9.9310    2.2104  -24.9061 H   0  0  0  0  0  0  0  0  0  0  0  0
   -8.6390    1.2499  -25.6862 H   0  0  0  0  0  0  0  0  0  0  0  0
   -9.4173    2.5924  -22.3558 H   0  0  0  0  0  0  0  0  0  0  0  0
   -6.6764    3.7201  -22.3781 H   0  0  0  0  0  0  0  0  0  0  0  0
   -7.0561    2.4385  -21.1822 H   0  0  0  0  0  0  0  0  0  0  0  0
   -7.9143    4.0400  -21.1597 H   0  0  0  0  0  0  0  0  0  0  0  0
  1  2  1  0
  2  3  1  0
  3  4  2  0
  3  5  1  0
  5  6  1  0
  6  7  1  0
  8  7  1  6
  8  9  1  0
  9 10  2  0
  9 11  1  0
 11 12  1  0
 12 13  2  0
 13 14  1  0
 14 15  2  0
 15 16  1  0
 16 17  2  0
 17 18  1  0
 18 19  2  0
 19 20  1  0
 20 21  2  0
 20 22  1  0
 19 23  1  0
 18 24  1  0
 17 25  1  0
 15 26  1  0
 13 27  1  0
 11 28  1  0
 28 29  1  0
 29 30  1  0
 30 31  1  0
 31 32  2  0
 31 33  2  0
 31 34  1  0
 34 35  1  0
 35 36  1  0
 35 37  1  0
 35 38  1  0
 34 39  1  0
 30 40  1  0
 30 41  1  0
 29 42  1  1
 28 43  1  0
 28 44  1  0
  8 45  1  0
 45 46  2  0
 46 47  1  0
 47 48  1  0
 47 49  2  0
 49 50  1  0
 50 51  2  0
 51 52  1  0
 52 53  2  0
 50 54  1  0
 49 55  1  0
 46 56  1  0
  7 57  1  0
  7 58  1  0
  5 59  1  0
  5 60  1  0
  2 61  1  0
  1 62  1  0
  1 63  1  0
  1 64  1  0
 52  6  1  0
 29  8  1  0
 51 45  1  0
 21 12  1  0
 21 16  1  0
M  END
>  <cnnaffinities>  (88) 
[6.37609, 6.76343, 6.19291]

>  <score>  (88) 
6.37609

>  <index>  (88) 
90

>  <Smiles>  (88) 
C(N(C(=O)C(N1C([C@@]2(C(=O)N(c3c(nc(c4c(c(c(c(c34)[H])[H])[H])[H])[H])[H])C([C@@]2(C(S(=O)(=O)N(C([H])([H])[H])[H])([H])[H])[H])([H])[H])c2c(c(F)c(c(c2C1=O)[H])[H])[H])([H])[H])([H])[H])[H])([H])([H])[H]

>  <h>  (88) 
<NA>

>  <Training>  (88) 
True

>  <Success>  (88) 
True

>  <enamine_searched>  (88) 
False

>  <enamine_id>  (88) 
nan

$$$$

     RDKit          3D

 66 71  0  0  0  0  0  0  0  0999 V2000
   -5.2242   -4.0015  -19.4372 C   0  0  0  0  0  0  0  0  0  0  0  0
   -6.3013   -4.6545  -20.1492 N   0  0  0  0  0  0  0  0  0  0  0  0
   -6.2242   -5.8951  -20.6828 C   0  0  0  0  0  0  0  0  0  0  0  0
   -5.2776   -6.6441  -20.5147 O   0  0  0  0  0  0  0  0  0  0  0  0
   -7.4685   -6.2839  -21.4957 C   0  0  0  0  0  0  0  0  0  0  0  0
   -7.7635   -5.3444  -22.5659 N   0  0  0  0  0  0  0  0  0  0  0  0
   -8.6595   -4.2063  -22.4115 C   0  0  0  0  0  0  0  0  0  0  0  0
   -8.0782   -2.9095  -23.0465 C   0  0  2  0  0  0  0  0  0  0  0  0
   -6.8977   -2.3782  -22.2003 C   0  0  0  0  0  0  0  0  0  0  0  0
   -5.7430   -2.7667  -22.2264 O   0  0  0  0  0  0  0  0  0  0  0  0
   -7.3657   -1.4047  -21.3441 N   0  0  0  0  0  0  0  0  0  0  0  0
   -6.5888   -0.9170  -20.2739 C   0  0  0  0  0  0  0  0  0  0  0  0
   -6.9541   -1.1840  -18.9753 C   0  0  0  0  0  0  0  0  0  0  0  0
   -6.1982   -0.8780  -17.8974 N   0  0  0  0  0  0  0  0  0  0  0  0
   -5.0792   -0.2183  -18.1078 C   0  0  0  0  0  0  0  0  0  0  0  0
   -4.6585    0.2396  -19.3901 C   0  0  0  0  0  0  0  0  0  0  0  0
   -3.5427    1.1044  -19.5490 C   0  0  0  0  0  0  0  0  0  0  0  0
   -3.1891    1.5708  -20.7869 C   0  0  0  0  0  0  0  0  0  0  0  0
   -3.9117    1.1631  -21.9280 C   0  0  0  0  0  0  0  0  0  0  0  0
   -4.9921    0.3264  -21.8041 C   0  0  0  0  0  0  0  0  0  0  0  0
   -5.4142   -0.1334  -20.5217 C   0  0  0  0  0  0  0  0  0  0  0  0
   -5.5297    0.0092  -22.6913 H   0  0  0  0  0  0  0  0  0  0  0  0
   -3.6069    1.5219  -22.9067 H   0  0  0  0  0  0  0  0  0  0  0  0
   -2.3588    2.2624  -20.9005 H   0  0  0  0  0  0  0  0  0  0  0  0
   -3.0019    1.4164  -18.6595 H   0  0  0  0  0  0  0  0  0  0  0  0
   -4.4489   -0.0223  -17.2418 H   0  0  0  0  0  0  0  0  0  0  0  0
   -7.8645   -1.7439  -18.7582 H   0  0  0  0  0  0  0  0  0  0  0  0
   -8.7955   -1.1672  -21.4864 C   0  0  0  0  0  0  0  0  0  0  0  0
   -9.0439   -1.7002  -22.9017 C   0  0  2  0  0  0  0  0  0  0  0  0
  -10.5134   -1.9293  -23.2645 C   0  0  0  0  0  0  0  0  0  0  0  0
  -11.2854   -0.7108  -23.4114 N   0  0  0  0  0  0  0  0  0  0  0  0
  -11.0674    0.1378  -24.4603 C   0  0  0  0  0  0  0  0  0  0  0  0
  -11.7762    1.3632  -24.5450 C   0  0  0  0  0  0  0  0  0  0  0  0
  -11.6459    2.1763  -25.5717 N   0  0  0  0  0  0  0  0  0  0  0  0
  -10.7891    1.7951  -26.5357 C   0  0  0  0  0  0  0  0  0  0  0  0
  -10.0813    0.6101  -26.4505 C   0  0  0  0  0  0  0  0  0  0  0  0
  -10.2195   -0.2327  -25.4164 N   0  0  0  0  0  0  0  0  0  0  0  0
   -9.3805    0.3119  -27.2323 H   0  0  0  0  0  0  0  0  0  0  0  0
  -10.6805    2.4571  -27.3885 H   0  0  0  0  0  0  0  0  0  0  0  0
  -12.4857    1.6383  -23.7662 H   0  0  0  0  0  0  0  0  0  0  0  0
  -11.6347   -0.2831  -22.5671 H   0  0  0  0  0  0  0  0  0  0  0  0
  -10.5543   -2.4714  -24.2129 H   0  0  0  0  0  0  0  0  0  0  0  0
  -11.0110   -2.5456  -22.5074 H   0  0  0  0  0  0  0  0  0  0  0  0
   -8.6400   -0.9503  -23.5858 H   0  0  0  0  0  0  0  0  0  0  0  0
   -9.3903   -1.7143  -20.7337 H   0  0  0  0  0  0  0  0  0  0  0  0
   -9.0046   -0.0958  -21.3997 H   0  0  0  0  0  0  0  0  0  0  0  0
   -7.6162   -3.2221  -24.4547 C   0  0  0  0  0  0  0  0  0  0  0  0
   -7.4479   -2.2090  -25.4171 C   0  0  0  0  0  0  0  0  0  0  0  0
   -6.8728   -2.5097  -26.6399 C   0  0  0  0  0  0  0  0  0  0  0  0
   -6.6220   -1.2397  -27.8085 Cl  0  0  0  0  0  0  0  0  0  0  0  0
   -6.4675   -3.8016  -26.9680 C   0  0  0  0  0  0  0  0  0  0  0  0
   -6.6572   -4.8027  -26.0390 C   0  0  0  0  0  0  0  0  0  0  0  0
   -7.2129   -4.5230  -24.7916 C   0  0  0  0  0  0  0  0  0  0  0  0
   -7.2566   -5.6543  -23.8025 C   0  0  0  0  0  0  0  0  0  0  0  0
   -6.8255   -6.7657  -24.0700 O   0  0  0  0  0  0  0  0  0  0  0  0
   -6.3609   -5.8254  -26.2442 H   0  0  0  0  0  0  0  0  0  0  0  0
   -5.9950   -4.0011  -27.9249 H   0  0  0  0  0  0  0  0  0  0  0  0
   -7.7556   -1.1817  -25.2468 H   0  0  0  0  0  0  0  0  0  0  0  0
   -9.6234   -4.4364  -22.8871 H   0  0  0  0  0  0  0  0  0  0  0  0
   -8.8712   -4.0353  -21.3537 H   0  0  0  0  0  0  0  0  0  0  0  0
   -8.3369   -6.3771  -20.8396 H   0  0  0  0  0  0  0  0  0  0  0  0
   -7.2733   -7.2585  -21.9374 H   0  0  0  0  0  0  0  0  0  0  0  0
   -7.0179   -4.0550  -20.5143 H   0  0  0  0  0  0  0  0  0  0  0  0
   -4.7152   -3.2837  -20.0942 H   0  0  0  0  0  0  0  0  0  0  0  0
   -5.6245   -3.4657  -18.5641 H   0  0  0  0  0  0  0  0  0  0  0  0
   -4.5383   -4.7813  -19.1153 H   0  0  0  0  0  0  0  0  0  0  0  0
  1  2  1  0
  2  3  1  0
  3  4  2  0
  3  5  1  0
  5  6  1  0
  6  7  1  0
  8  7  1  1
  8  9  1  0
  9 10  2  0
  9 11  1  0
 11 12  1  0
 12 13  2  0
 13 14  1  0
 14 15  2  0
 15 16  1  0
 16 17  2  0
 17 18  1  0
 18 19  2  0
 19 20  1  0
 20 21  2  0
 20 22  1  0
 19 23  1  0
 18 24  1  0
 17 25  1  0
 15 26  1  0
 13 27  1  0
 11 28  1  0
 28 29  1  0
 29 30  1  0
 30 31  1  0
 31 32  1  0
 32 33  2  0
 33 34  1  0
 34 35  2  0
 35 36  1  0
 36 37  2  0
 36 38  1  0
 35 39  1  0
 33 40  1  0
 31 41  1  0
 30 42  1  0
 30 43  1  0
 29 44  1  6
 28 45  1  0
 28 46  1  0
  8 47  1  0
 47 48  2  0
 48 49  1  0
 49 50  1  0
 49 51  2  0
 51 52  1  0
 52 53  2  0
 53 54  1  0
 54 55  2  0
 52 56  1  0
 51 57  1  0
 48 58  1  0
  7 59  1  0
  7 60  1  0
  5 61  1  0
  5 62  1  0
  2 63  1  0
  1 64  1  0
  1 65  1  0
  1 66  1  0
 54  6  1  0
 29  8  1  0
 37 32  1  0
 53 47  1  0
 21 12  1  0
 21 16  1  0
M  END
>  <cnnaffinities>  (89) 
[6.10113, 6.68544]

>  <score>  (89) 
6.10113

>  <index>  (89) 
91

>  <Smiles>  (89) 
C(N(C(=O)C(N1C([C@@]2(C(=O)N(c3c(nc(c4c(c(c(c(c34)[H])[H])[H])[H])[H])[H])C([C@@]2(C(N(c2c(nc(c(n2)[H])[H])[H])[H])([H])[H])[H])([H])[H])c2c(c(Cl)c(c(c2C1=O)[H])[H])[H])([H])[H])([H])[H])[H])([H])([H])[H]

>  <h>  (89) 
<NA>

>  <Training>  (89) 
True

>  <Success>  (89) 
True

>  <enamine_searched>  (89) 
False

>  <enamine_id>  (89) 
nan

$$$$

     RDKit          3D

 60 65  0  0  0  0  0  0  0  0999 V2000
   -7.1811   -5.6278  -24.9060 C   0  0  0  0  0  0  0  0  0  0  0  0
   -7.4395   -4.9237  -23.7155 O   0  0  0  0  0  0  0  0  0  0  0  0
   -8.2021   -3.7697  -23.9671 C   0  0  0  0  0  0  0  0  0  0  0  0
   -8.4012   -3.0106  -22.6660 C   0  0  1  0  0  0  0  0  0  0  0  0
   -7.0585   -2.5100  -22.0939 C   0  0  0  0  0  0  0  0  0  0  0  0
   -7.4400   -1.3385  -21.3326 N   0  0  0  0  0  0  0  0  0  0  0  0
   -6.6359   -0.8965  -20.2545 C   0  0  0  0  0  0  0  0  0  0  0  0
   -6.9519   -1.2146  -18.9565 C   0  0  0  0  0  0  0  0  0  0  0  0
   -6.1875   -0.8832  -17.8885 N   0  0  0  0  0  0  0  0  0  0  0  0
   -5.1027   -0.1787  -18.1057 C   0  0  0  0  0  0  0  0  0  0  0  0
   -4.6763    0.2470  -19.3965 C   0  0  0  0  0  0  0  0  0  0  0  0
   -3.5808    1.1334  -19.5928 C   0  0  0  0  0  0  0  0  0  0  0  0
   -3.2242    1.5194  -20.8560 C   0  0  0  0  0  0  0  0  0  0  0  0
   -3.8655    0.9567  -21.9813 C   0  0  0  0  0  0  0  0  0  0  0  0
   -4.9098    0.0778  -21.8138 C   0  0  0  0  0  0  0  0  0  0  0  0
   -5.4100   -0.2087  -20.5149 C   0  0  0  0  0  0  0  0  0  0  0  0
   -5.3723   -0.3718  -22.6861 H   0  0  0  0  0  0  0  0  0  0  0  0
   -3.5534    1.2556  -22.9803 H   0  0  0  0  0  0  0  0  0  0  0  0
   -2.4609    2.2758  -21.0086 H   0  0  0  0  0  0  0  0  0  0  0  0
   -3.0629    1.5235  -18.7217 H   0  0  0  0  0  0  0  0  0  0  0  0
   -4.4987    0.0776  -17.2351 H   0  0  0  0  0  0  0  0  0  0  0  0
   -7.8516   -1.7868  -18.7380 H   0  0  0  0  0  0  0  0  0  0  0  0
   -8.7315   -0.9047  -21.5701 C   0  0  0  0  0  0  0  0  0  0  0  0
   -9.2944   -0.0293  -20.9537 O   0  0  0  0  0  0  0  0  0  0  0  0
   -9.2977   -1.7418  -22.7600 C   0  0  1  0  0  0  0  0  0  0  0  0
   -9.0528   -1.0077  -24.1147 C   0  0  0  0  0  0  0  0  0  0  0  0
   -9.8706    0.1830  -24.2700 N   0  0  0  0  0  0  0  0  0  0  0  0
   -9.3091    1.4046  -24.8409 C   0  0  0  0  0  0  0  0  0  0  0  0
   -8.3466    2.1116  -23.9205 C   0  0  0  0  0  0  0  0  0  0  0  0
   -8.6205    3.0707  -22.9143 C   0  0  0  0  0  0  0  0  0  0  0  0
   -7.5184    3.4524  -22.2696 N   0  0  0  0  0  0  0  0  0  0  0  0
   -6.5464    2.7428  -22.8486 N   0  0  0  0  0  0  0  0  0  0  0  0
   -6.9837    1.9228  -23.8337 C   0  0  0  0  0  0  0  0  0  0  0  0
   -6.3137    1.2723  -24.3829 H   0  0  0  0  0  0  0  0  0  0  0  0
   -5.6132    2.7933  -22.4614 H   0  0  0  0  0  0  0  0  0  0  0  0
   -9.5894    3.4869  -22.6476 H   0  0  0  0  0  0  0  0  0  0  0  0
   -8.8297    1.1922  -25.8078 H   0  0  0  0  0  0  0  0  0  0  0  0
  -10.1694    2.0460  -25.0549 H   0  0  0  0  0  0  0  0  0  0  0  0
  -11.1981    0.1880  -23.9688 C   0  0  0  0  0  0  0  0  0  0  0  0
  -11.9540    1.0835  -24.3299 O   0  0  0  0  0  0  0  0  0  0  0  0
  -11.6715   -0.9700  -23.1641 C   0  0  0  0  0  0  0  0  0  0  0  0
  -13.0399   -0.9862  -22.9235 C   0  0  0  0  0  0  0  0  0  0  0  0
  -13.5837   -1.9195  -22.0791 C   0  0  0  0  0  0  0  0  0  0  0  0
  -12.7294   -2.8590  -21.5118 C   0  0  0  0  0  0  0  0  0  0  0  0
  -13.4365   -3.8859  -20.3135 Cl  0  0  0  0  0  0  0  0  0  0  0  0
  -11.3736   -2.9218  -21.8095 C   0  0  0  0  0  0  0  0  0  0  0  0
  -10.8007   -1.9300  -22.6224 C   0  0  0  0  0  0  0  0  0  0  0  0
  -10.7855   -3.7399  -21.4026 H   0  0  0  0  0  0  0  0  0  0  0  0
  -14.6380   -1.9265  -21.8223 H   0  0  0  0  0  0  0  0  0  0  0  0
  -13.6349   -0.2057  -23.3790 H   0  0  0  0  0  0  0  0  0  0  0  0
   -9.2680   -1.7069  -24.9379 H   0  0  0  0  0  0  0  0  0  0  0  0
   -8.0077   -0.6928  -24.1829 H   0  0  0  0  0  0  0  0  0  0  0  0
   -6.3441   -2.2602  -22.8945 H   0  0  0  0  0  0  0  0  0  0  0  0
   -6.5651   -3.2328  -21.4364 H   0  0  0  0  0  0  0  0  0  0  0  0
   -8.8292   -3.7011  -21.9344 H   0  0  0  0  0  0  0  0  0  0  0  0
   -9.1758   -4.0369  -24.4148 H   0  0  0  0  0  0  0  0  0  0  0  0
   -7.6712   -3.1260  -24.6934 H   0  0  0  0  0  0  0  0  0  0  0  0
   -6.5677   -5.0339  -25.6071 H   0  0  0  0  0  0  0  0  0  0  0  0
   -8.1155   -5.9109  -25.4224 H   0  0  0  0  0  0  0  0  0  0  0  0
   -6.6337   -6.5365  -24.6428 H   0  0  0  0  0  0  0  0  0  0  0  0
  1  2  1  0
  2  3  1  0
  3  4  1  0
  4  5  1  0
  5  6  1  0
  6  7  1  0
  7  8  2  0
  8  9  1  0
  9 10  2  0
 10 11  1  0
 11 12  2  0
 12 13  1  0
 13 14  2  0
 14 15  1  0
 15 16  2  0
 15 17  1  0
 14 18  1  0
 13 19  1  0
 12 20  1  0
 10 21  1  0
  8 22  1  0
  6 23  1  0
 23 24  2  0
 23 25  1  0
 25 26  1  6
 26 27  1  0
 27 28  1  0
 28 29  1  0
 29 30  1  0
 30 31  2  0
 31 32  1  0
 32 33  1  0
 33 34  1  0
 32 35  1  0
 30 36  1  0
 28 37  1  0
 28 38  1  0
 27 39  1  0
 39 40  2  0
 39 41  1  0
 41 42  2  0
 42 43  1  0
 43 44  2  0
 44 45  1  0
 44 46  1  0
 46 47  2  0
 46 48  1  0
 43 49  1  0
 42 50  1  0
 26 51  1  0
 26 52  1  0
  5 53  1  0
  5 54  1  0
  4 55  1  1
  3 56  1  0
  3 57  1  0
  1 58  1  0
  1 59  1  0
  1 60  1  0
 25  4  1  0
 33 29  2  0
 47 41  1  0
 16  7  1  0
 47 25  1  0
 16 11  1  0
M  END
>  <cnnaffinities>  (90) 
[6.69668, 6.4093, 6.12421, 5.72231, 6.24286, 5.88055]

>  <score>  (90) 
6.69668

>  <index>  (90) 
92

>  <Smiles>  (90) 
C(OC([C@]1(C(N(c2c(nc(c3c(c(c(c(c23)[H])[H])[H])[H])[H])[H])C(=O)[C@]21C(N(C(c1c(nn(c1[H])[H])[H])([H])[H])C(=O)c1c(c(c(Cl)c(c21)[H])[H])[H])([H])[H])([H])[H])[H])([H])[H])([H])([H])[H]

>  <h>  (90) 
<NA>

>  <Training>  (90) 
True

>  <Success>  (90) 
True

>  <enamine_searched>  (90) 
False

>  <enamine_id>  (90) 
nan

$$$$

     RDKit          3D

 62 67  0  0  0  0  0  0  0  0999 V2000
  -11.3133    4.3002  -25.2279 C   0  0  0  0  0  0  0  0  0  0  0  0
   -9.8249    4.1619  -25.5241 C   0  0  0  0  0  0  0  0  0  0  0  0
   -9.0620    3.5821  -24.4280 N   0  0  0  0  0  0  0  0  0  0  0  0
   -8.4854    4.4135  -23.5459 N   0  0  0  0  0  0  0  0  0  0  0  0
   -7.9020    3.6247  -22.6548 C   0  0  0  0  0  0  0  0  0  0  0  0
   -8.1086    2.2651  -22.9601 C   0  0  0  0  0  0  0  0  0  0  0  0
   -8.8693    2.2706  -24.1080 C   0  0  0  0  0  0  0  0  0  0  0  0
   -9.3690    1.1093  -24.9253 C   0  0  0  0  0  0  0  0  0  0  0  0
   -9.8351    0.0142  -24.1019 N   0  0  0  0  0  0  0  0  0  0  0  0
   -9.0209   -1.1806  -23.9819 C   0  0  0  0  0  0  0  0  0  0  0  0
   -9.2212   -1.9011  -22.6301 C   0  0  2  0  0  0  0  0  0  0  0  0
   -8.6687   -1.0250  -21.4866 C   0  0  0  0  0  0  0  0  0  0  0  0
   -9.2468   -0.1191  -20.9175 O   0  0  0  0  0  0  0  0  0  0  0  0
   -7.3803   -1.4184  -21.2289 N   0  0  0  0  0  0  0  0  0  0  0  0
   -6.6160   -0.8433  -20.1888 C   0  0  0  0  0  0  0  0  0  0  0  0
   -6.9276   -1.1039  -18.8791 C   0  0  0  0  0  0  0  0  0  0  0  0
   -6.1632   -0.7207  -17.8268 N   0  0  0  0  0  0  0  0  0  0  0  0
   -5.1014    0.0047  -18.0860 C   0  0  0  0  0  0  0  0  0  0  0  0
   -4.7202    0.4300  -19.3933 C   0  0  0  0  0  0  0  0  0  0  0  0
   -3.6212    1.3036  -19.6216 C   0  0  0  0  0  0  0  0  0  0  0  0
   -3.2567    1.6385  -20.8958 C   0  0  0  0  0  0  0  0  0  0  0  0
   -3.9750    1.1337  -22.0022 C   0  0  0  0  0  0  0  0  0  0  0  0
   -5.0673    0.3213  -21.8059 C   0  0  0  0  0  0  0  0  0  0  0  0
   -5.4727   -0.0405  -20.4922 C   0  0  0  0  0  0  0  0  0  0  0  0
   -5.6166   -0.0499  -22.6655 H   0  0  0  0  0  0  0  0  0  0  0  0
   -3.6589    1.3920  -23.0088 H   0  0  0  0  0  0  0  0  0  0  0  0
   -2.4053    2.2907  -21.0719 H   0  0  0  0  0  0  0  0  0  0  0  0
   -3.0935    1.7139  -18.7631 H   0  0  0  0  0  0  0  0  0  0  0  0
   -4.4745    0.3020  -17.2419 H   0  0  0  0  0  0  0  0  0  0  0  0
   -7.8320   -1.6623  -18.6429 H   0  0  0  0  0  0  0  0  0  0  0  0
   -6.9754   -2.6079  -21.9515 C   0  0  0  0  0  0  0  0  0  0  0  0
   -8.3032   -3.1531  -22.5124 C   0  0  2  0  0  0  0  0  0  0  0  0
   -8.1086   -3.9841  -23.7776 C   0  0  0  0  0  0  0  0  0  0  0  0
   -7.5656   -3.4106  -24.5393 H   0  0  0  0  0  0  0  0  0  0  0  0
   -7.5137   -4.8787  -23.5669 H   0  0  0  0  0  0  0  0  0  0  0  0
   -9.0623   -4.3064  -24.2111 H   0  0  0  0  0  0  0  0  0  0  0  0
   -8.7316   -3.7865  -21.7285 H   0  0  0  0  0  0  0  0  0  0  0  0
   -6.4765   -3.3129  -21.2783 H   0  0  0  0  0  0  0  0  0  0  0  0
   -6.2695   -2.3577  -22.7561 H   0  0  0  0  0  0  0  0  0  0  0  0
  -10.7106   -2.1075  -22.4492 C   0  0  0  0  0  0  0  0  0  0  0  0
  -11.2421   -3.1336  -21.6621 C   0  0  0  0  0  0  0  0  0  0  0  0
  -12.5921   -3.1258  -21.3545 C   0  0  0  0  0  0  0  0  0  0  0  0
  -13.0479   -3.9752  -20.4270 F   0  0  0  0  0  0  0  0  0  0  0  0
  -13.5063   -2.2361  -21.9182 C   0  0  0  0  0  0  0  0  0  0  0  0
  -12.9809   -1.2242  -22.7020 C   0  0  0  0  0  0  0  0  0  0  0  0
  -11.6104   -1.1442  -22.9370 C   0  0  0  0  0  0  0  0  0  0  0  0
  -11.1343    0.0533  -23.6906 C   0  0  0  0  0  0  0  0  0  0  0  0
  -11.8783    1.0033  -23.9215 O   0  0  0  0  0  0  0  0  0  0  0  0
  -13.6047   -0.4463  -23.1272 H   0  0  0  0  0  0  0  0  0  0  0  0
  -14.5729   -2.3362  -21.7281 H   0  0  0  0  0  0  0  0  0  0  0  0
  -10.6279   -3.9313  -21.2538 H   0  0  0  0  0  0  0  0  0  0  0  0
   -9.2784   -1.8853  -24.7811 H   0  0  0  0  0  0  0  0  0  0  0  0
   -7.9703   -0.8968  -24.0977 H   0  0  0  0  0  0  0  0  0  0  0  0
  -10.2066    1.4174  -25.5582 H   0  0  0  0  0  0  0  0  0  0  0  0
   -8.5718    0.7216  -25.5770 H   0  0  0  0  0  0  0  0  0  0  0  0
   -7.7814    1.3856  -22.4205 H   0  0  0  0  0  0  0  0  0  0  0  0
   -7.3666    4.0798  -21.8289 H   0  0  0  0  0  0  0  0  0  0  0  0
   -9.3767    5.1422  -25.6945 H   0  0  0  0  0  0  0  0  0  0  0  0
   -9.6603    3.5602  -26.4245 H   0  0  0  0  0  0  0  0  0  0  0  0
  -11.7675    3.3234  -25.0344 H   0  0  0  0  0  0  0  0  0  0  0  0
  -11.4816    4.9411  -24.3577 H   0  0  0  0  0  0  0  0  0  0  0  0
  -11.8131    4.7567  -26.0881 H   0  0  0  0  0  0  0  0  0  0  0  0
  1  2  1  0
  2  3  1  0
  3  4  1  0
  4  5  2  0
  5  6  1  0
  6  7  2  0
  7  8  1  0
  8  9  1  0
  9 10  1  0
 11 10  1  6
 11 12  1  0
 12 13  2  0
 12 14  1  0
 14 15  1  0
 15 16  2  0
 16 17  1  0
 17 18  2  0
 18 19  1  0
 19 20  2  0
 20 21  1  0
 21 22  2  0
 22 23  1  0
 23 24  2  0
 23 25  1  0
 22 26  1  0
 21 27  1  0
 20 28  1  0
 18 29  1  0
 16 30  1  0
 14 31  1  0
 31 32  1  0
 32 33  1  0
 33 34  1  0
 33 35  1  0
 33 36  1  0
 32 37  1  1
 31 38  1  0
 31 39  1  0
 11 40  1  0
 40 41  2  0
 41 42  1  0
 42 43  1  0
 42 44  2  0
 44 45  1  0
 45 46  2  0
 46 47  1  0
 47 48  2  0
 45 49  1  0
 44 50  1  0
 41 51  1  0
 10 52  1  0
 10 53  1  0
  8 54  1  0
  8 55  1  0
  6 56  1  0
  5 57  1  0
  2 58  1  0
  2 59  1  0
  1 60  1  0
  1 61  1  0
  1 62  1  0
  7  3  1  0
 47  9  1  0
 32 11  1  0
 46 40  1  0
 24 15  1  0
 24 19  1  0
M  END
>  <cnnaffinities>  (91) 
[6.91706, 5.77675]

>  <score>  (91) 
6.91706

>  <index>  (91) 
93

>  <Smiles>  (91) 
C(C(n1nc(c(c1C(N1C([C@@]2(C(=O)N(c3c(nc(c4c(c(c(c(c34)[H])[H])[H])[H])[H])[H])C([C@@]2(C([H])([H])[H])[H])([H])[H])c2c(c(F)c(c(c2C1=O)[H])[H])[H])([H])[H])([H])[H])[H])[H])([H])[H])([H])([H])[H]

>  <h>  (91) 
<NA>

>  <Training>  (91) 
True

>  <Success>  (91) 
True

>  <enamine_searched>  (91) 
False

>  <enamine_id>  (91) 
nan

$$$$

     RDKit          3D

 66 71  0  0  0  0  0  0  0  0999 V2000
   -7.7446   -6.0980  -26.6634 C   0  0  0  0  0  0  0  0  0  0  0  0
   -7.8743   -4.6923  -26.9985 N   0  0  0  0  0  0  0  0  0  0  0  0
   -6.9958   -3.7671  -26.5448 C   0  0  0  0  0  0  0  0  0  0  0  0
   -5.9614   -4.0263  -25.9396 O   0  0  0  0  0  0  0  0  0  0  0  0
   -7.4529   -2.3211  -26.7724 C   0  0  0  0  0  0  0  0  0  0  0  0
   -8.3825   -1.8935  -25.7286 N   0  0  0  0  0  0  0  0  0  0  0  0
   -7.8681   -1.3449  -24.4780 C   0  0  0  0  0  0  0  0  0  0  0  0
   -8.7540   -1.6273  -23.2232 C   0  0  2  0  0  0  0  0  0  0  0  0
   -8.2064   -0.6791  -22.1390 C   0  0  0  0  0  0  0  0  0  0  0  0
   -8.3631    0.5232  -22.0742 O   0  0  0  0  0  0  0  0  0  0  0  0
   -7.4259   -1.4206  -21.2640 N   0  0  0  0  0  0  0  0  0  0  0  0
   -6.6107   -0.8894  -20.2347 C   0  0  0  0  0  0  0  0  0  0  0  0
   -6.8774   -1.2438  -18.9349 C   0  0  0  0  0  0  0  0  0  0  0  0
   -6.1325   -0.8896  -17.8645 N   0  0  0  0  0  0  0  0  0  0  0  0
   -5.0724   -0.1537  -18.0918 C   0  0  0  0  0  0  0  0  0  0  0  0
   -4.6798    0.2983  -19.3822 C   0  0  0  0  0  0  0  0  0  0  0  0
   -3.5513    1.1441  -19.5532 C   0  0  0  0  0  0  0  0  0  0  0  0
   -3.1709    1.5424  -20.8039 C   0  0  0  0  0  0  0  0  0  0  0  0
   -3.8796    1.0907  -21.9383 C   0  0  0  0  0  0  0  0  0  0  0  0
   -4.9824    0.2862  -21.7949 C   0  0  0  0  0  0  0  0  0  0  0  0
   -5.4392   -0.1037  -20.5035 C   0  0  0  0  0  0  0  0  0  0  0  0
   -5.5152   -0.0491  -22.6777 H   0  0  0  0  0  0  0  0  0  0  0  0
   -3.5505    1.3929  -22.9278 H   0  0  0  0  0  0  0  0  0  0  0  0
   -2.3266    2.2121  -20.9367 H   0  0  0  0  0  0  0  0  0  0  0  0
   -3.0220    1.4818  -18.6659 H   0  0  0  0  0  0  0  0  0  0  0  0
   -4.4624    0.1074  -17.2295 H   0  0  0  0  0  0  0  0  0  0  0  0
   -7.7524   -1.8538  -18.7177 H   0  0  0  0  0  0  0  0  0  0  0  0
   -7.3335   -2.8299  -21.5991 C   0  0  0  0  0  0  0  0  0  0  0  0
   -8.5225   -3.0100  -22.5442 C   0  0  2  0  0  0  0  0  0  0  0  0
   -8.4284   -4.1639  -23.5367 C   0  0  0  0  0  0  0  0  0  0  0  0
   -8.3638   -5.4791  -22.9282 N   0  0  0  0  0  0  0  0  0  0  0  0
   -7.1916   -5.9900  -22.4440 C   0  0  0  0  0  0  0  0  0  0  0  0
   -5.9440   -5.6936  -23.0220 C   0  0  0  0  0  0  0  0  0  0  0  0
   -4.8412   -6.2709  -22.4259 C   0  0  0  0  0  0  0  0  0  0  0  0
   -4.9119   -7.0358  -21.3318 N   0  0  0  0  0  0  0  0  0  0  0  0
   -6.1413   -7.2567  -20.8935 C   0  0  0  0  0  0  0  0  0  0  0  0
   -7.2879   -6.8090  -21.3874 N   0  0  0  0  0  0  0  0  0  0  0  0
   -6.2105   -7.8714  -19.9991 H   0  0  0  0  0  0  0  0  0  0  0  0
   -3.8390   -6.1012  -22.8174 H   0  0  0  0  0  0  0  0  0  0  0  0
   -5.8635   -5.0459  -23.8932 H   0  0  0  0  0  0  0  0  0  0  0  0
   -9.1436   -5.6854  -22.3181 H   0  0  0  0  0  0  0  0  0  0  0  0
   -9.3218   -4.1361  -24.1710 H   0  0  0  0  0  0  0  0  0  0  0  0
   -7.5578   -4.0407  -24.1767 H   0  0  0  0  0  0  0  0  0  0  0  0
   -9.4064   -3.1923  -21.9106 H   0  0  0  0  0  0  0  0  0  0  0  0
   -7.4207   -3.4317  -20.6892 H   0  0  0  0  0  0  0  0  0  0  0  0
   -6.3580   -3.0691  -22.0630 H   0  0  0  0  0  0  0  0  0  0  0  0
  -10.2234   -1.4729  -23.5877 C   0  0  0  0  0  0  0  0  0  0  0  0
  -11.2074   -1.2863  -22.6039 C   0  0  0  0  0  0  0  0  0  0  0  0
  -12.5483   -1.2358  -22.9652 C   0  0  0  0  0  0  0  0  0  0  0  0
  -13.7902   -1.0620  -21.7691 Cl  0  0  0  0  0  0  0  0  0  0  0  0
  -12.9578   -1.3432  -24.2922 C   0  0  0  0  0  0  0  0  0  0  0  0
  -11.9958   -1.5863  -25.2504 C   0  0  0  0  0  0  0  0  0  0  0  0
  -10.6501   -1.6982  -24.9016 C   0  0  0  0  0  0  0  0  0  0  0  0
   -9.6892   -2.1952  -25.9252 C   0  0  0  0  0  0  0  0  0  0  0  0
  -10.0590   -2.8654  -26.8951 O   0  0  0  0  0  0  0  0  0  0  0  0
  -12.2606   -1.7105  -26.2923 H   0  0  0  0  0  0  0  0  0  0  0  0
  -14.0165   -1.2908  -24.5427 H   0  0  0  0  0  0  0  0  0  0  0  0
  -10.9442   -1.2126  -21.5549 H   0  0  0  0  0  0  0  0  0  0  0  0
   -7.7750   -0.2547  -24.5686 H   0  0  0  0  0  0  0  0  0  0  0  0
   -6.8651   -1.7725  -24.3223 H   0  0  0  0  0  0  0  0  0  0  0  0
   -6.5900   -1.6546  -26.8086 H   0  0  0  0  0  0  0  0  0  0  0  0
   -7.9896   -2.2700  -27.7197 H   0  0  0  0  0  0  0  0  0  0  0  0
   -8.7994   -4.3394  -27.2244 H   0  0  0  0  0  0  0  0  0  0  0  0
   -7.5589   -6.2382  -25.5885 H   0  0  0  0  0  0  0  0  0  0  0  0
   -8.6821   -6.5904  -26.9262 H   0  0  0  0  0  0  0  0  0  0  0  0
   -6.9373   -6.5671  -27.2324 H   0  0  0  0  0  0  0  0  0  0  0  0
  1  2  1  0
  2  3  1  0
  3  4  2  0
  3  5  1  0
  5  6  1  0
  6  7  1  0
  8  7  1  6
  8  9  1  0
  9 10  2  0
  9 11  1  0
 11 12  1  0
 12 13  2  0
 13 14  1  0
 14 15  2  0
 15 16  1  0
 16 17  2  0
 17 18  1  0
 18 19  2  0
 19 20  1  0
 20 21  2  0
 20 22  1  0
 19 23  1  0
 18 24  1  0
 17 25  1  0
 15 26  1  0
 13 27  1  0
 11 28  1  0
 28 29  1  0
 29 30  1  0
 30 31  1  0
 31 32  1  0
 32 33  2  0
 33 34  1  0
 34 35  2  0
 35 36  1  0
 36 37  2  0
 36 38  1  0
 34 39  1  0
 33 40  1  0
 31 41  1  0
 30 42  1  0
 30 43  1  0
 29 44  1  1
 28 45  1  0
 28 46  1  0
  8 47  1  0
 47 48  2  0
 48 49  1  0
 49 50  1  0
 49 51  2  0
 51 52  1  0
 52 53  2  0
 53 54  1  0
 54 55  2  0
 52 56  1  0
 51 57  1  0
 48 58  1  0
  7 59  1  0
  7 60  1  0
  5 61  1  0
  5 62  1  0
  2 63  1  0
  1 64  1  0
  1 65  1  0
  1 66  1  0
 54  6  1  0
 29  8  1  0
 37 32  1  0
 53 47  1  0
 21 12  1  0
 21 16  1  0
M  END
>  <cnnaffinities>  (92) 
[6.11254, 6.60199]

>  <score>  (92) 
6.11254

>  <index>  (92) 
95

>  <Smiles>  (92) 
C(N(C(=O)C(N1C([C@@]2(C(=O)N(c3c(nc(c4c(c(c(c(c34)[H])[H])[H])[H])[H])[H])C([C@@]2(C(N(c2c(c(nc(n2)[H])[H])[H])[H])([H])[H])[H])([H])[H])c2c(c(Cl)c(c(c2C1=O)[H])[H])[H])([H])[H])([H])[H])[H])([H])([H])[H]

>  <h>  (92) 
<NA>

>  <Training>  (92) 
True

>  <Success>  (92) 
True

>  <enamine_searched>  (92) 
False

>  <enamine_id>  (92) 
nan

$$$$

     RDKit          3D

 66 70  0  0  0  0  0  0  0  0999 V2000
   -7.4512    3.3790  -21.7814 C   0  0  0  0  0  0  0  0  0  0  0  0
   -8.3437    2.9110  -22.8247 N   0  0  0  0  0  0  0  0  0  0  0  0
   -7.8021    2.2165  -23.8622 C   0  0  0  0  0  0  0  0  0  0  0  0
   -6.5957    2.0776  -23.9992 O   0  0  0  0  0  0  0  0  0  0  0  0
   -8.7969    1.6263  -24.8550 C   0  0  0  0  0  0  0  0  0  0  0  0
   -9.4641    0.4581  -24.3284 N   0  0  0  0  0  0  0  0  0  0  0  0
   -8.6981   -0.7615  -24.1677 C   0  0  0  0  0  0  0  0  0  0  0  0
   -9.0774   -1.5159  -22.8752 C   0  0  2  0  0  0  0  0  0  0  0  0
   -8.5619   -0.7523  -21.6393 C   0  0  0  0  0  0  0  0  0  0  0  0
   -9.0539    0.2229  -21.1122 O   0  0  0  0  0  0  0  0  0  0  0  0
   -7.4095   -1.3644  -21.2233 N   0  0  0  0  0  0  0  0  0  0  0  0
   -6.6154   -0.8288  -20.1934 C   0  0  0  0  0  0  0  0  0  0  0  0
   -6.9311   -1.1133  -18.8924 C   0  0  0  0  0  0  0  0  0  0  0  0
   -6.1584   -0.7725  -17.8395 N   0  0  0  0  0  0  0  0  0  0  0  0
   -5.0892   -0.0527  -18.0921 C   0  0  0  0  0  0  0  0  0  0  0  0
   -4.7139    0.4033  -19.3907 C   0  0  0  0  0  0  0  0  0  0  0  0
   -3.6183    1.2794  -19.6124 C   0  0  0  0  0  0  0  0  0  0  0  0
   -3.2543    1.6279  -20.8849 C   0  0  0  0  0  0  0  0  0  0  0  0
   -3.9754    1.1390  -21.9977 C   0  0  0  0  0  0  0  0  0  0  0  0
   -5.0702    0.3312  -21.8086 C   0  0  0  0  0  0  0  0  0  0  0  0
   -5.4722   -0.0367  -20.4951 C   0  0  0  0  0  0  0  0  0  0  0  0
   -5.6328   -0.0151  -22.6703 H   0  0  0  0  0  0  0  0  0  0  0  0
   -3.6662    1.4004  -23.0040 H   0  0  0  0  0  0  0  0  0  0  0  0
   -2.4024    2.2805  -21.0529 H   0  0  0  0  0  0  0  0  0  0  0  0
   -3.0934    1.6839  -18.7526 H   0  0  0  0  0  0  0  0  0  0  0  0
   -4.4512    0.2045  -17.2493 H   0  0  0  0  0  0  0  0  0  0  0  0
   -7.8564   -1.6435  -18.6785 H   0  0  0  0  0  0  0  0  0  0  0  0
   -7.0484   -2.5529  -21.9584 C   0  0  0  0  0  0  0  0  0  0  0  0
   -8.3130   -2.8664  -22.7681 C   0  0  2  0  0  0  0  0  0  0  0  0
   -7.9828   -3.6015  -24.0695 C   0  0  0  0  0  0  0  0  0  0  0  0
   -9.1362   -3.9137  -24.8167 O   0  0  0  0  0  0  0  0  0  0  0  0
   -9.6986   -5.1993  -24.5626 C   0  0  0  0  0  0  0  0  0  0  0  0
  -11.1948   -5.0511  -24.7500 C   0  0  0  0  0  0  0  0  0  0  0  0
  -11.7128   -6.0006  -24.5703 H   0  0  0  0  0  0  0  0  0  0  0  0
  -11.5944   -4.2922  -24.0709 H   0  0  0  0  0  0  0  0  0  0  0  0
  -11.3936   -4.7251  -25.7741 H   0  0  0  0  0  0  0  0  0  0  0  0
   -9.0987   -6.2389  -25.5036 C   0  0  0  0  0  0  0  0  0  0  0  0
   -9.5531   -7.2223  -25.3367 H   0  0  0  0  0  0  0  0  0  0  0  0
   -8.0183   -6.3365  -25.3576 H   0  0  0  0  0  0  0  0  0  0  0  0
   -9.2784   -5.9441  -26.5418 H   0  0  0  0  0  0  0  0  0  0  0  0
   -9.4894   -5.4939  -23.5221 H   0  0  0  0  0  0  0  0  0  0  0  0
   -7.4018   -4.5129  -23.8490 H   0  0  0  0  0  0  0  0  0  0  0  0
   -7.3543   -2.9662  -24.7063 H   0  0  0  0  0  0  0  0  0  0  0  0
   -8.9490   -3.5300  -22.1786 H   0  0  0  0  0  0  0  0  0  0  0  0
   -6.1795   -2.3737  -22.6109 H   0  0  0  0  0  0  0  0  0  0  0  0
   -6.7789   -3.3562  -21.2666 H   0  0  0  0  0  0  0  0  0  0  0  0
  -10.5835   -1.6171  -22.8225 C   0  0  0  0  0  0  0  0  0  0  0  0
  -11.1974   -2.5268  -21.9543 C   0  0  0  0  0  0  0  0  0  0  0  0
  -12.5768   -2.5484  -21.8477 C   0  0  0  0  0  0  0  0  0  0  0  0
  -13.3248   -3.6127  -20.6900 Cl  0  0  0  0  0  0  0  0  0  0  0  0
  -13.3934   -1.7116  -22.6110 C   0  0  0  0  0  0  0  0  0  0  0  0
  -12.7895   -0.7781  -23.4281 C   0  0  0  0  0  0  0  0  0  0  0  0
  -11.4018   -0.7038  -23.4997 C   0  0  0  0  0  0  0  0  0  0  0  0
  -10.8270    0.4564  -24.2463 C   0  0  0  0  0  0  0  0  0  0  0  0
  -11.5234    1.3469  -24.7098 O   0  0  0  0  0  0  0  0  0  0  0  0
  -13.3618   -0.0537  -23.9958 H   0  0  0  0  0  0  0  0  0  0  0  0
  -14.4724   -1.7818  -22.5151 H   0  0  0  0  0  0  0  0  0  0  0  0
  -10.6024   -3.1906  -21.3333 H   0  0  0  0  0  0  0  0  0  0  0  0
   -8.8880   -1.4329  -25.0129 H   0  0  0  0  0  0  0  0  0  0  0  0
   -7.6366   -0.4995  -24.1604 H   0  0  0  0  0  0  0  0  0  0  0  0
   -9.5847    2.3427  -25.1017 H   0  0  0  0  0  0  0  0  0  0  0  0
   -8.2298    1.3725  -25.7516 H   0  0  0  0  0  0  0  0  0  0  0  0
   -9.3006    2.7158  -22.5554 H   0  0  0  0  0  0  0  0  0  0  0  0
   -6.9758    2.5449  -21.2432 H   0  0  0  0  0  0  0  0  0  0  0  0
   -6.6526    3.9641  -22.2364 H   0  0  0  0  0  0  0  0  0  0  0  0
   -7.9802    4.0333  -21.0876 H   0  0  0  0  0  0  0  0  0  0  0  0
  1  2  1  0
  2  3  1  0
  3  4  2  0
  3  5  1  0
  5  6  1  0
  6  7  1  0
  8  7  1  6
  8  9  1  0
  9 10  2  0
  9 11  1  0
 11 12  1  0
 12 13  2  0
 13 14  1  0
 14 15  2  0
 15 16  1  0
 16 17  2  0
 17 18  1  0
 18 19  2  0
 19 20  1  0
 20 21  2  0
 20 22  1  0
 19 23  1  0
 18 24  1  0
 17 25  1  0
 15 26  1  0
 13 27  1  0
 11 28  1  0
 28 29  1  0
 29 30  1  0
 30 31  1  0
 31 32  1  0
 32 33  1  0
 33 34  1  0
 33 35  1  0
 33 36  1  0
 32 37  1  0
 37 38  1  0
 37 39  1  0
 37 40  1  0
 32 41  1  0
 30 42  1  0
 30 43  1  0
 29 44  1  1
 28 45  1  0
 28 46  1  0
  8 47  1  0
 47 48  2  0
 48 49  1  0
 49 50  1  0
 49 51  2  0
 51 52  1  0
 52 53  2  0
 53 54  1  0
 54 55  2  0
 52 56  1  0
 51 57  1  0
 48 58  1  0
  7 59  1  0
  7 60  1  0
  5 61  1  0
  5 62  1  0
  2 63  1  0
  1 64  1  0
  1 65  1  0
  1 66  1  0
 54  6  1  0
 29  8  1  0
 53 47  1  0
 21 12  1  0
 21 16  1  0
M  END
>  <cnnaffinities>  (93) 
[6.41928]

>  <score>  (93) 
6.41928

>  <index>  (93) 
96

>  <Smiles>  (93) 
C(N(C(=O)C(N1C([C@@]2(C(=O)N(c3c(nc(c4c(c(c(c(c34)[H])[H])[H])[H])[H])[H])C([C@@]2(C(OC(C([H])([H])[H])(C([H])([H])[H])[H])([H])[H])[H])([H])[H])c2c(c(Cl)c(c(c2C1=O)[H])[H])[H])([H])[H])([H])[H])[H])([H])([H])[H]

>  <h>  (93) 
<NA>

>  <Training>  (93) 
True

>  <Success>  (93) 
True

>  <enamine_searched>  (93) 
False

>  <enamine_id>  (93) 
nan

$$$$

     RDKit          3D

 40 43  0  0  0  0  0  0  0  0999 V2000
  -12.5650   -1.4483  -23.7756 C   0  0  0  0  0  0  0  0  0  0  0  0
  -11.1662   -0.8696  -23.5392 C   0  0  2  0  0  0  0  0  0  0  0  0
  -10.7087   -0.0502  -24.7455 C   0  0  0  0  0  0  0  0  0  0  0  0
   -9.4096    0.4661  -24.5645 O   0  0  0  0  0  0  0  0  0  0  0  0
   -8.4544   -0.5582  -24.4507 C   0  0  0  0  0  0  0  0  0  0  0  0
   -8.6937   -1.4437  -23.2119 C   0  0  1  0  0  0  0  0  0  0  0  0
  -10.1380   -1.9717  -23.2636 C   0  0  0  0  0  0  0  0  0  0  0  0
  -10.3492   -2.4729  -22.3123 H   0  0  0  0  0  0  0  0  0  0  0  0
  -10.1905   -2.7370  -24.0577 H   0  0  0  0  0  0  0  0  0  0  0  0
   -7.7287   -2.5199  -23.1320 N   0  0  0  0  0  0  0  0  0  0  0  0
   -6.9425   -2.5096  -22.0222 C   0  0  0  0  0  0  0  0  0  0  0  0
   -6.0539   -3.2741  -21.7252 O   0  0  0  0  0  0  0  0  0  0  0  0
   -7.3603   -1.3929  -21.2746 N   0  0  0  0  0  0  0  0  0  0  0  0
   -6.5893   -0.8346  -20.2212 C   0  0  0  0  0  0  0  0  0  0  0  0
   -6.9365   -1.0964  -18.9262 C   0  0  0  0  0  0  0  0  0  0  0  0
   -6.2002   -0.6892  -17.8668 N   0  0  0  0  0  0  0  0  0  0  0  0
   -5.1303    0.0289  -18.1073 C   0  0  0  0  0  0  0  0  0  0  0  0
   -4.7129    0.4575  -19.4045 C   0  0  0  0  0  0  0  0  0  0  0  0
   -3.6074    1.3270  -19.6278 C   0  0  0  0  0  0  0  0  0  0  0  0
   -3.2223    1.6433  -20.9012 C   0  0  0  0  0  0  0  0  0  0  0  0
   -3.9303    1.1230  -22.0095 C   0  0  0  0  0  0  0  0  0  0  0  0
   -5.0215    0.3191  -21.8211 C   0  0  0  0  0  0  0  0  0  0  0  0
   -5.4480   -0.0198  -20.5053 C   0  0  0  0  0  0  0  0  0  0  0  0
   -5.5629   -0.0772  -22.6764 H   0  0  0  0  0  0  0  0  0  0  0  0
   -3.6051    1.3583  -23.0167 H   0  0  0  0  0  0  0  0  0  0  0  0
   -2.3611    2.2813  -21.0790 H   0  0  0  0  0  0  0  0  0  0  0  0
   -3.0918    1.7382  -18.7661 H   0  0  0  0  0  0  0  0  0  0  0  0
   -4.5327    0.2927  -17.2370 H   0  0  0  0  0  0  0  0  0  0  0  0
   -7.8194   -1.6927  -18.6946 H   0  0  0  0  0  0  0  0  0  0  0  0
   -8.3883   -0.6908  -21.9001 C   0  0  0  0  0  0  0  0  0  0  0  0
   -8.8943    0.3101  -21.4558 O   0  0  0  0  0  0  0  0  0  0  0  0
   -7.5855   -3.2205  -23.8400 H   0  0  0  0  0  0  0  0  0  0  0  0
   -7.4794   -0.0705  -24.3723 H   0  0  0  0  0  0  0  0  0  0  0  0
   -8.4685   -1.2034  -25.3497 H   0  0  0  0  0  0  0  0  0  0  0  0
  -10.7450   -0.6837  -25.6558 H   0  0  0  0  0  0  0  0  0  0  0  0
  -11.3550    0.8230  -24.8901 H   0  0  0  0  0  0  0  0  0  0  0  0
  -11.1736   -0.1962  -22.6725 H   0  0  0  0  0  0  0  0  0  0  0  0
  -12.9023   -2.0351  -22.9131 H   0  0  0  0  0  0  0  0  0  0  0  0
  -13.3002   -0.6536  -23.9506 H   0  0  0  0  0  0  0  0  0  0  0  0
  -12.5763   -2.1102  -24.6534 H   0  0  0  0  0  0  0  0  0  0  0  0
  1  2  1  0
  2  3  1  0
  3  4  1  0
  4  5  1  0
  5  6  1  0
  6  7  1  0
  7  8  1  0
  7  9  1  0
  6 10  1  6
 10 11  1  0
 11 12  2  0
 11 13  1  0
 13 14  1  0
 14 15  2  0
 15 16  1  0
 16 17  2  0
 17 18  1  0
 18 19  2  0
 19 20  1  0
 20 21  2  0
 21 22  1  0
 22 23  2  0
 22 24  1  0
 21 25  1  0
 20 26  1  0
 19 27  1  0
 17 28  1  0
 15 29  1  0
 13 30  1  0
 30 31  2  0
 10 32  1  0
  5 33  1  0
  5 34  1  0
  3 35  1  0
  3 36  1  0
  2 37  1  1
  1 38  1  0
  1 39  1  0
  1 40  1  0
  7  2  1  0
 23 14  1  0
 30  6  1  0
 23 18  1  0
M  END
>  <cnnaffinities>  (94) 
[5.04064, 5.056, 4.86265]

>  <score>  (94) 
5.04064

>  <index>  (94) 
97

>  <Smiles>  (94) 
C([C@@]1(C(OC([C@@]2(C1([H])[H])N(C(=O)N(c1c(nc(c3c(c(c(c(c13)[H])[H])[H])[H])[H])[H])C2=O)[H])([H])[H])([H])[H])[H])([H])([H])[H]

>  <h>  (94) 
<NA>

>  <Training>  (94) 
True

>  <Success>  (94) 
True

>  <enamine_searched>  (94) 
False

>  <enamine_id>  (94) 
nan

$$$$
