
     RDKit          3D

 66 71  0  0  0  0  0  0  0  0999 V2000
   -7.3546    3.4430  -21.9156 C   0  0  0  0  0  0  0  0  0  0  0  0
   -8.2203    2.9702  -22.9874 N   0  0  0  0  0  0  0  0  0  0  0  0
   -7.6443    2.2259  -23.9794 C   0  0  0  0  0  0  0  0  0  0  0  0
   -6.4399    2.0494  -24.0726 O   0  0  0  0  0  0  0  0  0  0  0  0
   -8.6190    1.6190  -24.9888 C   0  0  0  0  0  0  0  0  0  0  0  0
   -9.3201    0.4916  -24.4157 N   0  0  0  0  0  0  0  0  0  0  0  0
   -8.5829   -0.7471  -24.2389 C   0  0  0  0  0  0  0  0  0  0  0  0
   -9.0099   -1.4810  -22.9491 C   0  0  2  0  0  0  0  0  0  0  0  0
   -8.4825   -0.7166  -21.7154 C   0  0  0  0  0  0  0  0  0  0  0  0
   -8.9172    0.3203  -21.2469 O   0  0  0  0  0  0  0  0  0  0  0  0
   -7.3976   -1.3911  -21.2131 N   0  0  0  0  0  0  0  0  0  0  0  0
   -6.6163   -0.8042  -20.1845 C   0  0  0  0  0  0  0  0  0  0  0  0
   -6.9322   -1.0510  -18.8743 C   0  0  0  0  0  0  0  0  0  0  0  0
   -6.2387   -0.5709  -17.8133 N   0  0  0  0  0  0  0  0  0  0  0  0
   -5.2111    0.2037  -18.0708 C   0  0  0  0  0  0  0  0  0  0  0  0
   -4.7945    0.5709  -19.3831 C   0  0  0  0  0  0  0  0  0  0  0  0
   -3.6570    1.3900  -19.6129 C   0  0  0  0  0  0  0  0  0  0  0  0
   -3.3057    1.7524  -20.8848 C   0  0  0  0  0  0  0  0  0  0  0  0
   -4.0822    1.3323  -21.9863 C   0  0  0  0  0  0  0  0  0  0  0  0
   -5.1663    0.5045  -21.7948 C   0  0  0  0  0  0  0  0  0  0  0  0
   -5.5358    0.0818  -20.4858 C   0  0  0  0  0  0  0  0  0  0  0  0
   -5.7420    0.1776  -22.6566 H   0  0  0  0  0  0  0  0  0  0  0  0
   -3.8272    1.6602  -22.9908 H   0  0  0  0  0  0  0  0  0  0  0  0
   -2.4218    2.3604  -21.0514 H   0  0  0  0  0  0  0  0  0  0  0  0
   -3.0855    1.7219  -18.7502 H   0  0  0  0  0  0  0  0  0  0  0  0
   -4.6349    0.5720  -17.2208 H   0  0  0  0  0  0  0  0  0  0  0  0
   -7.7919   -1.6762  -18.6455 H   0  0  0  0  0  0  0  0  0  0  0  0
   -7.0609   -2.5997  -21.9424 C   0  0  0  0  0  0  0  0  0  0  0  0
   -8.3007   -2.8638  -22.8133 C   0  0  2  0  0  0  0  0  0  0  0  0
   -7.9261   -3.6206  -24.0938 C   0  0  0  0  0  0  0  0  0  0  0  0
   -9.0885   -3.9630  -24.8827 N   0  0  0  0  0  0  0  0  0  0  0  0
   -8.9845   -4.5898  -26.0852 C   0  0  0  0  0  0  0  0  0  0  0  0
  -10.1295   -4.9097  -26.8406 C   0  0  0  0  0  0  0  0  0  0  0  0
   -9.9265   -5.5287  -28.0507 C   0  0  0  0  0  0  0  0  0  0  0  0
   -8.7117   -5.8383  -28.5328 N   0  0  0  0  0  0  0  0  0  0  0  0
   -7.7089   -5.4994  -27.7363 C   0  0  0  0  0  0  0  0  0  0  0  0
   -7.7615   -4.8916  -26.5455 N   0  0  0  0  0  0  0  0  0  0  0  0
   -6.7050   -5.7440  -28.0948 H   0  0  0  0  0  0  0  0  0  0  0  0
  -10.7698   -5.8001  -28.6842 H   0  0  0  0  0  0  0  0  0  0  0  0
  -11.1283   -4.6818  -26.4856 H   0  0  0  0  0  0  0  0  0  0  0  0
  -10.0084   -3.7483  -24.5282 H   0  0  0  0  0  0  0  0  0  0  0  0
   -7.3925   -4.5455  -23.8374 H   0  0  0  0  0  0  0  0  0  0  0  0
   -7.2396   -3.0289  -24.7175 H   0  0  0  0  0  0  0  0  0  0  0  0
   -8.9779   -3.5180  -22.2547 H   0  0  0  0  0  0  0  0  0  0  0  0
   -6.8590   -3.4283  -21.2562 H   0  0  0  0  0  0  0  0  0  0  0  0
   -6.1667   -2.4591  -22.5696 H   0  0  0  0  0  0  0  0  0  0  0  0
  -10.5222   -1.5229  -22.8941 C   0  0  0  0  0  0  0  0  0  0  0  0
  -11.1604   -2.4041  -22.0183 C   0  0  0  0  0  0  0  0  0  0  0  0
  -12.5373   -2.3970  -21.9131 C   0  0  0  0  0  0  0  0  0  0  0  0
  -13.2828   -3.4583  -20.7590 Cl  0  0  0  0  0  0  0  0  0  0  0  0
  -13.3299   -1.5316  -22.6661 C   0  0  0  0  0  0  0  0  0  0  0  0
  -12.7003   -0.6247  -23.4941 C   0  0  0  0  0  0  0  0  0  0  0  0
  -11.3115   -0.5965  -23.5856 C   0  0  0  0  0  0  0  0  0  0  0  0
  -10.6873    0.5140  -24.3665 C   0  0  0  0  0  0  0  0  0  0  0  0
  -11.3529    1.4017  -24.8810 O   0  0  0  0  0  0  0  0  0  0  0  0
  -13.2531    0.1023  -24.0751 H   0  0  0  0  0  0  0  0  0  0  0  0
  -14.4105   -1.5698  -22.5828 H   0  0  0  0  0  0  0  0  0  0  0  0
  -10.5960   -3.0732  -21.3785 H   0  0  0  0  0  0  0  0  0  0  0  0
   -8.7582   -1.4138  -25.0927 H   0  0  0  0  0  0  0  0  0  0  0  0
   -7.5119   -0.5179  -24.2056 H   0  0  0  0  0  0  0  0  0  0  0  0
   -8.0440    1.3003  -25.8654 H   0  0  0  0  0  0  0  0  0  0  0  0
   -9.3796    2.3442  -25.2912 H   0  0  0  0  0  0  0  0  0  0  0  0
   -9.1795    2.7584  -22.7370 H   0  0  0  0  0  0  0  0  0  0  0  0
   -7.9418    4.0046  -21.1840 H   0  0  0  0  0  0  0  0  0  0  0  0
   -6.5943    4.1136  -22.3270 H   0  0  0  0  0  0  0  0  0  0  0  0
   -6.8475    2.5974  -21.4250 H   0  0  0  0  0  0  0  0  0  0  0  0
  1  2  1  0
  2  3  1  0
  3  4  2  0
  3  5  1  0
  5  6  1  0
  6  7  1  0
  8  7  1  6
  8  9  1  0
  9 10  2  0
  9 11  1  0
 11 12  1  0
 12 13  2  0
 13 14  1  0
 14 15  2  0
 15 16  1  0
 16 17  2  0
 17 18  1  0
 18 19  2  0
 19 20  1  0
 20 21  2  0
 20 22  1  0
 19 23  1  0
 18 24  1  0
 17 25  1  0
 15 26  1  0
 13 27  1  0
 11 28  1  0
 28 29  1  0
 29 30  1  0
 30 31  1  0
 31 32  1  0
 32 33  2  0
 33 34  1  0
 34 35  2  0
 35 36  1  0
 36 37  2  0
 36 38  1  0
 34 39  1  0
 33 40  1  0
 31 41  1  0
 30 42  1  0
 30 43  1  0
 29 44  1  1
 28 45  1  0
 28 46  1  0
  8 47  1  0
 47 48  2  0
 48 49  1  0
 49 50  1  0
 49 51  2  0
 51 52  1  0
 52 53  2  0
 53 54  1  0
 54 55  2  0
 52 56  1  0
 51 57  1  0
 48 58  1  0
  7 59  1  0
  7 60  1  0
  5 61  1  0
  5 62  1  0
  2 63  1  0
  1 64  1  0
  1 65  1  0
  1 66  1  0
 54  6  1  0
 29  8  1  0
 37 32  1  0
 53 47  1  0
 21 12  1  0
 21 16  1  0
M  END
>  <cnnaffinities>  (1) 
[5.7388]

>  <score>  (1) 
5.7388

>  <index>  (1) 
0

>  <Smiles>  (1) 
C(N(C(=O)C(N1C([C@@]2(C(=O)N(c3c(nc(c4c(c(c(c(c34)[H])[H])[H])[H])[H])[H])C([C@@]2(C(N(c2c(c(nc(n2)[H])[H])[H])[H])([H])[H])[H])([H])[H])c2c(c(Cl)c(c(c2C1=O)[H])[H])[H])([H])[H])([H])[H])[H])([H])([H])[H]

>  <h>  (1) 
<NA>

>  <Training>  (1) 
True

>  <Success>  (1) 
True

>  <enamine_searched>  (1) 
False

>  <enamine_id>  (1) 
nan

$$$$

     RDKit          3D

 68 73  0  0  0  0  0  0  0  0999 V2000
   -7.3282    3.4980  -22.0053 C   0  0  0  0  0  0  0  0  0  0  0  0
   -8.3140    2.9362  -22.9142 N   0  0  0  0  0  0  0  0  0  0  0  0
   -7.8852    2.2321  -24.0002 C   0  0  0  0  0  0  0  0  0  0  0  0
   -6.7007    2.0802  -24.2635 O   0  0  0  0  0  0  0  0  0  0  0  0
   -8.9973    1.6503  -24.8864 C   0  0  0  0  0  0  0  0  0  0  0  0
   -9.6007    0.4826  -24.2592 N   0  0  0  0  0  0  0  0  0  0  0  0
   -8.7665   -0.6933  -24.0673 C   0  0  0  0  0  0  0  0  0  0  0  0
   -9.1132   -1.4756  -22.7637 C   0  0  2  0  0  0  0  0  0  0  0  0
   -8.6139   -0.6583  -21.5516 C   0  0  0  0  0  0  0  0  0  0  0  0
   -9.1157    0.3412  -21.0805 O   0  0  0  0  0  0  0  0  0  0  0  0
   -7.4501   -1.2233  -21.0898 N   0  0  0  0  0  0  0  0  0  0  0  0
   -6.6689   -0.6540  -20.0701 C   0  0  0  0  0  0  0  0  0  0  0  0
   -6.9271   -0.9734  -18.7663 C   0  0  0  0  0  0  0  0  0  0  0  0
   -6.1832   -0.5372  -17.7246 N   0  0  0  0  0  0  0  0  0  0  0  0
   -5.1511    0.2281  -17.9956 C   0  0  0  0  0  0  0  0  0  0  0  0
   -4.7615    0.6108  -19.3139 C   0  0  0  0  0  0  0  0  0  0  0  0
   -3.6339    1.4360  -19.5748 C   0  0  0  0  0  0  0  0  0  0  0  0
   -3.3450    1.8356  -20.8531 C   0  0  0  0  0  0  0  0  0  0  0  0
   -4.1709    1.4430  -21.9333 C   0  0  0  0  0  0  0  0  0  0  0  0
   -5.2563    0.6295  -21.7086 C   0  0  0  0  0  0  0  0  0  0  0  0
   -5.5615    0.1791  -20.3935 C   0  0  0  0  0  0  0  0  0  0  0  0
   -5.9208    0.3814  -22.5321 H   0  0  0  0  0  0  0  0  0  0  0  0
   -3.9674    1.8009  -22.9399 H   0  0  0  0  0  0  0  0  0  0  0  0
   -2.4890    2.4767  -21.0460 H   0  0  0  0  0  0  0  0  0  0  0  0
   -3.0380    1.7702  -18.7288 H   0  0  0  0  0  0  0  0  0  0  0  0
   -4.5669    0.5930  -17.1496 H   0  0  0  0  0  0  0  0  0  0  0  0
   -7.7621   -1.6309  -18.5297 H   0  0  0  0  0  0  0  0  0  0  0  0
   -6.9879   -2.3637  -21.8292 C   0  0  0  0  0  0  0  0  0  0  0  0
   -8.2421   -2.7682  -22.6112 C   0  0  2  0  0  0  0  0  0  0  0  0
   -7.8830   -3.4879  -23.8948 C   0  0  0  0  0  0  0  0  0  0  0  0
   -9.0771   -3.9833  -24.5301 N   0  0  0  0  0  0  0  0  0  0  0  0
   -8.9702   -4.4874  -25.8110 C   0  0  0  0  0  0  0  0  0  0  0  0
   -7.7774   -4.7756  -26.5218 C   0  0  0  0  0  0  0  0  0  0  0  0
   -8.0408   -5.3139  -27.7079 N   0  0  0  0  0  0  0  0  0  0  0  0
   -9.3683   -5.3893  -27.7570 N   0  0  0  0  0  0  0  0  0  0  0  0
  -10.0440   -5.9055  -28.9067 C   0  0  0  0  0  0  0  0  0  0  0  0
  -10.8060   -5.1808  -29.1975 H   0  0  0  0  0  0  0  0  0  0  0  0
  -10.5219   -6.8677  -28.6934 H   0  0  0  0  0  0  0  0  0  0  0  0
   -9.3027   -6.0218  -29.6952 H   0  0  0  0  0  0  0  0  0  0  0  0
   -9.9846   -4.9028  -26.6526 C   0  0  0  0  0  0  0  0  0  0  0  0
  -11.0676   -4.9164  -26.5764 H   0  0  0  0  0  0  0  0  0  0  0  0
   -6.7523   -4.6330  -26.1961 H   0  0  0  0  0  0  0  0  0  0  0  0
   -9.9584   -3.5271  -24.3152 H   0  0  0  0  0  0  0  0  0  0  0  0
   -7.3001   -2.8107  -24.5495 H   0  0  0  0  0  0  0  0  0  0  0  0
   -7.2148   -4.3389  -23.7006 H   0  0  0  0  0  0  0  0  0  0  0  0
   -8.8038   -3.4686  -21.9854 H   0  0  0  0  0  0  0  0  0  0  0  0
   -6.1367   -2.1123  -22.4865 H   0  0  0  0  0  0  0  0  0  0  0  0
   -6.6441   -3.1515  -21.1486 H   0  0  0  0  0  0  0  0  0  0  0  0
  -10.6245   -1.6665  -22.6974 C   0  0  0  0  0  0  0  0  0  0  0  0
  -11.2111   -2.6579  -21.8937 C   0  0  0  0  0  0  0  0  0  0  0  0
  -12.5867   -2.7027  -21.7322 C   0  0  0  0  0  0  0  0  0  0  0  0
  -13.2912   -3.8530  -20.6366 Cl  0  0  0  0  0  0  0  0  0  0  0  0
  -13.4294   -1.8058  -22.3822 C   0  0  0  0  0  0  0  0  0  0  0  0
  -12.8635   -0.8309  -23.1735 C   0  0  0  0  0  0  0  0  0  0  0  0
  -11.4809   -0.7403  -23.3192 C   0  0  0  0  0  0  0  0  0  0  0  0
  -10.9595    0.4243  -24.1137 C   0  0  0  0  0  0  0  0  0  0  0  0
  -11.7062    1.2823  -24.5675 O   0  0  0  0  0  0  0  0  0  0  0  0
  -13.4780   -0.1092  -23.6963 H   0  0  0  0  0  0  0  0  0  0  0  0
  -14.5037   -1.8728  -22.2577 H   0  0  0  0  0  0  0  0  0  0  0  0
  -10.6204   -3.3890  -21.3515 H   0  0  0  0  0  0  0  0  0  0  0  0
   -7.7291   -0.3517  -24.0115 H   0  0  0  0  0  0  0  0  0  0  0  0
   -8.8619   -1.3418  -24.9497 H   0  0  0  0  0  0  0  0  0  0  0  0
   -9.8105    2.3675  -25.0543 H   0  0  0  0  0  0  0  0  0  0  0  0
   -8.5474    1.4113  -25.8595 H   0  0  0  0  0  0  0  0  0  0  0  0
   -9.2520    2.8029  -22.5497 H   0  0  0  0  0  0  0  0  0  0  0  0
   -6.5360    3.9682  -22.5957 H   0  0  0  0  0  0  0  0  0  0  0  0
   -7.8145    4.2449  -21.3719 H   0  0  0  0  0  0  0  0  0  0  0  0
   -6.8559    2.7285  -21.3760 H   0  0  0  0  0  0  0  0  0  0  0  0
  1  2  1  0
  2  3  1  0
  3  4  2  0
  3  5  1  0
  5  6  1  0
  6  7  1  0
  8  7  1  6
  8  9  1  0
  9 10  2  0
  9 11  1  0
 11 12  1  0
 12 13  2  0
 13 14  1  0
 14 15  2  0
 15 16  1  0
 16 17  2  0
 17 18  1  0
 18 19  2  0
 19 20  1  0
 20 21  2  0
 20 22  1  0
 19 23  1  0
 18 24  1  0
 17 25  1  0
 15 26  1  0
 13 27  1  0
 11 28  1  0
 28 29  1  0
 29 30  1  0
 30 31  1  0
 31 32  1  0
 32 33  1  0
 33 34  2  0
 34 35  1  0
 35 36  1  0
 36 37  1  0
 36 38  1  0
 36 39  1  0
 35 40  1  0
 40 41  1  0
 33 42  1  0
 31 43  1  0
 30 44  1  0
 30 45  1  0
 29 46  1  1
 28 47  1  0
 28 48  1  0
  8 49  1  0
 49 50  2  0
 50 51  1  0
 51 52  1  0
 51 53  2  0
 53 54  1  0
 54 55  2  0
 55 56  1  0
 56 57  2  0
 54 58  1  0
 53 59  1  0
 50 60  1  0
  7 61  1  0
  7 62  1  0
  5 63  1  0
  5 64  1  0
  2 65  1  0
  1 66  1  0
  1 67  1  0
  1 68  1  0
 56  6  1  0
 29  8  1  0
 40 32  2  0
 55 49  1  0
 21 12  1  0
 21 16  1  0
M  END
>  <cnnaffinities>  (2) 
[6.12907]

>  <score>  (2) 
6.12907

>  <index>  (2) 
1

>  <Smiles>  (2) 
C(N(C(=O)C(N1C([C@@]2(C(=O)N(c3c(nc(c4c(c(c(c(c34)[H])[H])[H])[H])[H])[H])C([C@@]2(C(N(c2c(nn(C([H])([H])[H])c2[H])[H])[H])([H])[H])[H])([H])[H])c2c(c(Cl)c(c(c2C1=O)[H])[H])[H])([H])[H])([H])[H])[H])([H])([H])[H]

>  <h>  (2) 
<NA>

>  <Training>  (2) 
True

>  <Success>  (2) 
True

>  <enamine_searched>  (2) 
False

>  <enamine_id>  (2) 
nan

$$$$

     RDKit          3D

 60 65  0  0  0  0  0  0  0  0999 V2000
   -5.1947   -1.4952  -30.4847 C   0  0  0  0  0  0  0  0  0  0  0  0
   -5.6788   -0.8813  -29.2059 C   0  0  0  0  0  0  0  0  0  0  0  0
   -5.1613   -1.2829  -27.9710 C   0  0  0  0  0  0  0  0  0  0  0  0
   -5.6156   -0.7891  -26.8224 N   0  0  0  0  0  0  0  0  0  0  0  0
   -6.5806    0.1345  -26.9056 C   0  0  0  0  0  0  0  0  0  0  0  0
   -7.1071    0.7138  -25.6231 C   0  0  0  0  0  0  0  0  0  0  0  0
   -8.2232   -0.0192  -25.0664 N   0  0  0  0  0  0  0  0  0  0  0  0
   -7.9768   -1.3139  -24.4693 C   0  0  0  0  0  0  0  0  0  0  0  0
   -8.7548   -1.4784  -23.1498 C   0  0  2  0  0  0  0  0  0  0  0  0
   -8.1425   -0.5636  -22.0739 C   0  0  0  0  0  0  0  0  0  0  0  0
   -8.2576    0.6396  -21.9804 O   0  0  0  0  0  0  0  0  0  0  0  0
   -7.4018   -1.3302  -21.2141 N   0  0  0  0  0  0  0  0  0  0  0  0
   -6.6248   -0.7609  -20.1837 C   0  0  0  0  0  0  0  0  0  0  0  0
   -6.9014   -1.0659  -18.8747 C   0  0  0  0  0  0  0  0  0  0  0  0
   -6.2080   -0.5899  -17.8123 N   0  0  0  0  0  0  0  0  0  0  0  0
   -5.2034    0.2155  -18.0685 C   0  0  0  0  0  0  0  0  0  0  0  0
   -4.7967    0.5915  -19.3808 C   0  0  0  0  0  0  0  0  0  0  0  0
   -3.6483    1.3963  -19.5995 C   0  0  0  0  0  0  0  0  0  0  0  0
   -3.2624    1.7329  -20.8681 C   0  0  0  0  0  0  0  0  0  0  0  0
   -4.0205    1.2994  -21.9799 C   0  0  0  0  0  0  0  0  0  0  0  0
   -5.1100    0.4854  -21.7983 C   0  0  0  0  0  0  0  0  0  0  0  0
   -5.5245    0.1028  -20.4863 C   0  0  0  0  0  0  0  0  0  0  0  0
   -5.6453    0.1092  -22.6680 H   0  0  0  0  0  0  0  0  0  0  0  0
   -3.7061    1.5794  -22.9832 H   0  0  0  0  0  0  0  0  0  0  0  0
   -2.3761    2.3391  -21.0313 H   0  0  0  0  0  0  0  0  0  0  0  0
   -3.0813    1.7218  -18.7317 H   0  0  0  0  0  0  0  0  0  0  0  0
   -4.6281    0.5886  -17.2200 H   0  0  0  0  0  0  0  0  0  0  0  0
   -7.7446   -1.7176  -18.6408 H   0  0  0  0  0  0  0  0  0  0  0  0
   -7.4106   -2.7394  -21.5285 C   0  0  0  0  0  0  0  0  0  0  0  0
   -8.5534   -2.8977  -22.5446 C   0  0  2  0  0  0  0  0  0  0  0  0
   -8.3055   -4.0451  -23.5297 C   0  0  0  0  0  0  0  0  0  0  0  0
   -9.1023   -4.1314  -24.2788 H   0  0  0  0  0  0  0  0  0  0  0  0
   -8.2452   -5.0082  -23.0091 H   0  0  0  0  0  0  0  0  0  0  0  0
   -7.3590   -3.9094  -24.0685 H   0  0  0  0  0  0  0  0  0  0  0  0
   -9.4599   -3.1447  -21.9883 H   0  0  0  0  0  0  0  0  0  0  0  0
   -6.4472   -3.0608  -21.9494 H   0  0  0  0  0  0  0  0  0  0  0  0
   -7.5844   -3.3031  -20.6158 H   0  0  0  0  0  0  0  0  0  0  0  0
  -10.1904   -1.0733  -23.3871 C   0  0  0  0  0  0  0  0  0  0  0  0
  -11.1912   -1.4704  -22.4937 C   0  0  0  0  0  0  0  0  0  0  0  0
  -12.4915   -1.0677  -22.7209 C   0  0  0  0  0  0  0  0  0  0  0  0
  -13.4491   -1.4782  -21.8725 F   0  0  0  0  0  0  0  0  0  0  0  0
  -12.8536   -0.2377  -23.7795 C   0  0  0  0  0  0  0  0  0  0  0  0
  -11.8501    0.2254  -24.6059 C   0  0  0  0  0  0  0  0  0  0  0  0
  -10.5342   -0.1895  -24.4190 C   0  0  0  0  0  0  0  0  0  0  0  0
   -9.4959    0.4105  -25.3111 C   0  0  0  0  0  0  0  0  0  0  0  0
   -9.7613    1.2502  -26.1621 O   0  0  0  0  0  0  0  0  0  0  0  0
  -12.0346    0.9401  -25.3992 H   0  0  0  0  0  0  0  0  0  0  0  0
  -13.8986    0.0255  -23.9123 H   0  0  0  0  0  0  0  0  0  0  0  0
  -10.9736   -2.0696  -21.6131 H   0  0  0  0  0  0  0  0  0  0  0  0
   -6.9022   -1.4298  -24.2958 H   0  0  0  0  0  0  0  0  0  0  0  0
   -8.2867   -2.1050  -25.1636 H   0  0  0  0  0  0  0  0  0  0  0  0
   -7.4516    1.7401  -25.7673 H   0  0  0  0  0  0  0  0  0  0  0  0
   -6.3004    0.6962  -24.8817 H   0  0  0  0  0  0  0  0  0  0  0  0
   -7.0819    0.5490  -28.1333 C   0  0  0  0  0  0  0  0  0  0  0  0
   -6.6366    0.0445  -29.2868 N   0  0  0  0  0  0  0  0  0  0  0  0
   -7.8614    1.3117  -28.1729 H   0  0  0  0  0  0  0  0  0  0  0  0
   -4.3563   -2.0187  -27.9138 H   0  0  0  0  0  0  0  0  0  0  0  0
   -5.5010   -2.5439  -30.5538 H   0  0  0  0  0  0  0  0  0  0  0  0
   -4.1036   -1.4724  -30.5533 H   0  0  0  0  0  0  0  0  0  0  0  0
   -5.6142   -0.9588  -31.3345 H   0  0  0  0  0  0  0  0  0  0  0  0
  1  2  1  0
  2  3  2  0
  3  4  1  0
  4  5  2  0
  5  6  1  0
  6  7  1  0
  7  8  1  0
  9  8  1  6
  9 10  1  0
 10 11  2  0
 10 12  1  0
 12 13  1  0
 13 14  2  0
 14 15  1  0
 15 16  2  0
 16 17  1  0
 17 18  2  0
 18 19  1  0
 19 20  2  0
 20 21  1  0
 21 22  2  0
 21 23  1  0
 20 24  1  0
 19 25  1  0
 18 26  1  0
 16 27  1  0
 14 28  1  0
 12 29  1  0
 29 30  1  0
 30 31  1  0
 31 32  1  0
 31 33  1  0
 31 34  1  0
 30 35  1  1
 29 36  1  0
 29 37  1  0
  9 38  1  0
 38 39  2  0
 39 40  1  0
 40 41  1  0
 40 42  2  0
 42 43  1  0
 43 44  2  0
 44 45  1  0
 45 46  2  0
 43 47  1  0
 42 48  1  0
 39 49  1  0
  8 50  1  0
  8 51  1  0
  6 52  1  0
  6 53  1  0
  5 54  1  0
 54 55  2  0
 54 56  1  0
  3 57  1  0
  1 58  1  0
  1 59  1  0
  1 60  1  0
 55  2  1  0
 45  7  1  0
 30  9  1  0
 44 38  1  0
 22 13  1  0
 22 17  1  0
M  END
>  <cnnaffinities>  (3) 
[5.71061, 5.77786]

>  <score>  (3) 
5.71061

>  <index>  (3) 
2

>  <Smiles>  (3) 
C(c1c(nc(C(N2C([C@@]3(C(=O)N(c4c(nc(c5c(c(c(c(c45)[H])[H])[H])[H])[H])[H])C([C@@]3(C([H])([H])[H])[H])([H])[H])c3c(c(F)c(c(c3C2=O)[H])[H])[H])([H])[H])([H])[H])c(n1)[H])[H])([H])([H])[H]

>  <h>  (3) 
<NA>

>  <Training>  (3) 
True

>  <Success>  (3) 
True

>  <enamine_searched>  (3) 
False

>  <enamine_id>  (3) 
nan

$$$$

     RDKit          3D

 66 70  0  0  0  0  0  0  0  0999 V2000
   -7.4070    3.4022  -21.9179 C   0  0  0  0  0  0  0  0  0  0  0  0
   -8.3487    2.9178  -22.9172 N   0  0  0  0  0  0  0  0  0  0  0  0
   -7.8256    2.1699  -23.9342 C   0  0  0  0  0  0  0  0  0  0  0  0
   -6.6279    1.9725  -24.0646 O   0  0  0  0  0  0  0  0  0  0  0  0
   -8.8419    1.5707  -24.9070 C   0  0  0  0  0  0  0  0  0  0  0  0
   -9.4980    0.4322  -24.2927 N   0  0  0  0  0  0  0  0  0  0  0  0
   -8.7466   -0.8045  -24.1393 C   0  0  0  0  0  0  0  0  0  0  0  0
   -9.1071   -1.5302  -22.8207 C   0  0  2  0  0  0  0  0  0  0  0  0
   -8.5574   -0.7401  -21.6096 C   0  0  0  0  0  0  0  0  0  0  0  0
   -9.0170    0.2692  -21.1059 O   0  0  0  0  0  0  0  0  0  0  0  0
   -7.4084   -1.3618  -21.1826 N   0  0  0  0  0  0  0  0  0  0  0  0
   -6.6209   -0.7814  -20.1610 C   0  0  0  0  0  0  0  0  0  0  0  0
   -6.9252   -1.0405  -18.8517 C   0  0  0  0  0  0  0  0  0  0  0  0
   -6.2259   -0.5633  -17.7944 N   0  0  0  0  0  0  0  0  0  0  0  0
   -5.1974    0.2068  -18.0576 C   0  0  0  0  0  0  0  0  0  0  0  0
   -4.7852    0.5734  -19.3710 C   0  0  0  0  0  0  0  0  0  0  0  0
   -3.6541    1.3966  -19.6087 C   0  0  0  0  0  0  0  0  0  0  0  0
   -3.3193    1.7680  -20.8803 C   0  0  0  0  0  0  0  0  0  0  0  0
   -4.1039    1.3516  -21.9777 C   0  0  0  0  0  0  0  0  0  0  0  0
   -5.1860    0.5231  -21.7807 C   0  0  0  0  0  0  0  0  0  0  0  0
   -5.5381    0.0948  -20.4706 C   0  0  0  0  0  0  0  0  0  0  0  0
   -5.7804    0.2138  -22.6366 H   0  0  0  0  0  0  0  0  0  0  0  0
   -3.8554    1.6842  -22.9814 H   0  0  0  0  0  0  0  0  0  0  0  0
   -2.4425    2.3838  -21.0526 H   0  0  0  0  0  0  0  0  0  0  0  0
   -3.0804    1.7331  -18.7494 H   0  0  0  0  0  0  0  0  0  0  0  0
   -4.6220    0.5751  -17.2075 H   0  0  0  0  0  0  0  0  0  0  0  0
   -7.7804   -1.6716  -18.6239 H   0  0  0  0  0  0  0  0  0  0  0  0
   -7.0592   -2.5617  -21.9185 C   0  0  0  0  0  0  0  0  0  0  0  0
   -8.3502   -2.8827  -22.6901 C   0  0  2  0  0  0  0  0  0  0  0  0
   -8.0798   -3.6688  -23.9754 C   0  0  0  0  0  0  0  0  0  0  0  0
   -7.5288   -4.9353  -23.6762 O   0  0  0  0  0  0  0  0  0  0  0  0
   -8.4631   -6.0126  -23.5896 C   0  0  0  0  0  0  0  0  0  0  0  0
   -7.9515   -6.9514  -22.5094 C   0  0  0  0  0  0  0  0  0  0  0  0
   -7.8286   -6.4114  -21.5693 H   0  0  0  0  0  0  0  0  0  0  0  0
   -6.9768   -7.3506  -22.8072 H   0  0  0  0  0  0  0  0  0  0  0  0
   -8.6473   -7.7821  -22.3466 H   0  0  0  0  0  0  0  0  0  0  0  0
   -8.5760   -6.7306  -24.9351 C   0  0  0  0  0  0  0  0  0  0  0  0
   -8.9194   -6.0541  -25.7274 H   0  0  0  0  0  0  0  0  0  0  0  0
   -9.2859   -7.5650  -24.8586 H   0  0  0  0  0  0  0  0  0  0  0  0
   -7.5957   -7.1282  -25.2247 H   0  0  0  0  0  0  0  0  0  0  0  0
   -9.4608   -5.6256  -23.3059 H   0  0  0  0  0  0  0  0  0  0  0  0
   -8.9965   -3.7568  -24.5837 H   0  0  0  0  0  0  0  0  0  0  0  0
   -7.3284   -3.1413  -24.5790 H   0  0  0  0  0  0  0  0  0  0  0  0
   -8.9497   -3.5301  -22.0462 H   0  0  0  0  0  0  0  0  0  0  0  0
   -6.7766   -3.3712  -21.2381 H   0  0  0  0  0  0  0  0  0  0  0  0
   -6.2135   -2.3916  -22.6030 H   0  0  0  0  0  0  0  0  0  0  0  0
  -10.6145   -1.6153  -22.7369 C   0  0  0  0  0  0  0  0  0  0  0  0
  -11.2256   -2.5543  -21.9045 C   0  0  0  0  0  0  0  0  0  0  0  0
  -12.5982   -2.5736  -21.7698 C   0  0  0  0  0  0  0  0  0  0  0  0
  -13.3032   -3.7000  -20.6558 Cl  0  0  0  0  0  0  0  0  0  0  0  0
  -13.4224   -1.6898  -22.4610 C   0  0  0  0  0  0  0  0  0  0  0  0
  -12.8236   -0.7432  -23.2626 C   0  0  0  0  0  0  0  0  0  0  0  0
  -11.4383   -0.6846  -23.3828 C   0  0  0  0  0  0  0  0  0  0  0  0
  -10.8598    0.4445  -24.1756 C   0  0  0  0  0  0  0  0  0  0  0  0
  -11.5534    1.3304  -24.6529 O   0  0  0  0  0  0  0  0  0  0  0  0
  -13.4046   -0.0133  -23.8102 H   0  0  0  0  0  0  0  0  0  0  0  0
  -14.4996   -1.7459  -22.3551 H   0  0  0  0  0  0  0  0  0  0  0  0
  -10.6524   -3.2729  -21.3330 H   0  0  0  0  0  0  0  0  0  0  0  0
   -8.9676   -1.4830  -24.9750 H   0  0  0  0  0  0  0  0  0  0  0  0
   -7.6762   -0.5728  -24.1699 H   0  0  0  0  0  0  0  0  0  0  0  0
   -9.6198    2.2908  -25.1831 H   0  0  0  0  0  0  0  0  0  0  0  0
   -8.3192    1.2562  -25.8187 H   0  0  0  0  0  0  0  0  0  0  0  0
   -9.2876    2.6957  -22.6024 H   0  0  0  0  0  0  0  0  0  0  0  0
   -6.6428    4.0097  -22.4144 H   0  0  0  0  0  0  0  0  0  0  0  0
   -6.9160    2.5563  -21.4059 H   0  0  0  0  0  0  0  0  0  0  0  0
   -7.9239    4.0476  -21.2034 H   0  0  0  0  0  0  0  0  0  0  0  0
  1  2  1  0
  2  3  1  0
  3  4  2  0
  3  5  1  0
  5  6  1  0
  6  7  1  0
  8  7  1  6
  8  9  1  0
  9 10  2  0
  9 11  1  0
 11 12  1  0
 12 13  2  0
 13 14  1  0
 14 15  2  0
 15 16  1  0
 16 17  2  0
 17 18  1  0
 18 19  2  0
 19 20  1  0
 20 21  2  0
 20 22  1  0
 19 23  1  0
 18 24  1  0
 17 25  1  0
 15 26  1  0
 13 27  1  0
 11 28  1  0
 28 29  1  0
 29 30  1  0
 30 31  1  0
 31 32  1  0
 32 33  1  0
 33 34  1  0
 33 35  1  0
 33 36  1  0
 32 37  1  0
 37 38  1  0
 37 39  1  0
 37 40  1  0
 32 41  1  0
 30 42  1  0
 30 43  1  0
 29 44  1  1
 28 45  1  0
 28 46  1  0
  8 47  1  0
 47 48  2  0
 48 49  1  0
 49 50  1  0
 49 51  2  0
 51 52  1  0
 52 53  2  0
 53 54  1  0
 54 55  2  0
 52 56  1  0
 51 57  1  0
 48 58  1  0
  7 59  1  0
  7 60  1  0
  5 61  1  0
  5 62  1  0
  2 63  1  0
  1 64  1  0
  1 65  1  0
  1 66  1  0
 54  6  1  0
 29  8  1  0
 53 47  1  0
 21 12  1  0
 21 16  1  0
M  END
>  <cnnaffinities>  (4) 
[5.84275, 5.81824, 5.65911]

>  <score>  (4) 
5.84275

>  <index>  (4) 
3

>  <Smiles>  (4) 
C(N(C(=O)C(N1C([C@@]2(C(=O)N(c3c(nc(c4c(c(c(c(c34)[H])[H])[H])[H])[H])[H])C([C@@]2(C(OC(C([H])([H])[H])(C([H])([H])[H])[H])([H])[H])[H])([H])[H])c2c(c(Cl)c(c(c2C1=O)[H])[H])[H])([H])[H])([H])[H])[H])([H])([H])[H]

>  <h>  (4) 
<NA>

>  <Training>  (4) 
True

>  <Success>  (4) 
True

>  <enamine_searched>  (4) 
False

>  <enamine_id>  (4) 
nan

$$$$

     RDKit          3D

 59 64  0  0  0  0  0  0  0  0999 V2000
  -10.0930   -2.6528  -22.3208 C   0  0  0  0  0  0  0  0  0  0  0  0
   -8.9568   -1.7942  -22.8938 C   0  0  1  0  0  0  0  0  0  0  0  0
   -8.5757   -0.6981  -21.8704 C   0  0  0  0  0  0  0  0  0  0  0  0
   -7.4358   -1.2775  -21.1841 N   0  0  0  0  0  0  0  0  0  0  0  0
   -6.7148   -0.6800  -20.1190 C   0  0  0  0  0  0  0  0  0  0  0  0
   -6.9392   -1.0681  -18.8256 C   0  0  0  0  0  0  0  0  0  0  0  0
   -6.2223   -0.6181  -17.7652 N   0  0  0  0  0  0  0  0  0  0  0  0
   -5.2334    0.2102  -18.0057 C   0  0  0  0  0  0  0  0  0  0  0  0
   -4.8827    0.6710  -19.3078 C   0  0  0  0  0  0  0  0  0  0  0  0
   -3.7979    1.5585  -19.5353 C   0  0  0  0  0  0  0  0  0  0  0  0
   -3.5349    2.0206  -20.7943 C   0  0  0  0  0  0  0  0  0  0  0  0
   -4.3333    1.6182  -21.8895 C   0  0  0  0  0  0  0  0  0  0  0  0
   -5.3659    0.7347  -21.7046 C   0  0  0  0  0  0  0  0  0  0  0  0
   -5.6630    0.2403  -20.3998 C   0  0  0  0  0  0  0  0  0  0  0  0
   -5.9564    0.4039  -22.5558 H   0  0  0  0  0  0  0  0  0  0  0  0
   -4.1229    2.0032  -22.8828 H   0  0  0  0  0  0  0  0  0  0  0  0
   -2.7047    2.6993  -20.9658 H   0  0  0  0  0  0  0  0  0  0  0  0
   -3.1933    1.8680  -18.6864 H   0  0  0  0  0  0  0  0  0  0  0  0
   -4.6563    0.5577  -17.1465 H   0  0  0  0  0  0  0  0  0  0  0  0
   -7.7245   -1.7889  -18.6031 H   0  0  0  0  0  0  0  0  0  0  0  0
   -6.8051   -2.2716  -21.8981 C   0  0  0  0  0  0  0  0  0  0  0  0
   -5.8023   -2.8414  -21.5223 O   0  0  0  0  0  0  0  0  0  0  0  0
   -7.6042   -2.5429  -23.1883 C   0  0  1  0  0  0  0  0  0  0  0  0
   -7.7439   -4.0725  -23.3512 C   0  0  0  0  0  0  0  0  0  0  0  0
   -6.5095   -4.6990  -23.8327 N   0  0  0  0  0  0  0  0  0  0  0  0
   -6.0290   -5.8888  -23.1333 C   0  0  0  0  0  0  0  0  0  0  0  0
   -7.1093   -6.9249  -23.0872 C   0  0  0  0  0  0  0  0  0  0  0  0
   -7.6858   -7.3587  -21.9933 N   0  0  0  0  0  0  0  0  0  0  0  0
   -8.7839   -8.0520  -22.4309 C   0  0  0  0  0  0  0  0  0  0  0  0
   -8.8371   -8.0614  -23.7983 C   0  0  0  0  0  0  0  0  0  0  0  0
   -7.7303   -7.3633  -24.2157 N   0  0  0  0  0  0  0  0  0  0  0  0
   -7.3008   -7.1535  -25.5847 C   0  0  0  0  0  0  0  0  0  0  0  0
   -7.6708   -7.9687  -26.2057 H   0  0  0  0  0  0  0  0  0  0  0  0
   -7.6840   -6.2091  -25.9905 H   0  0  0  0  0  0  0  0  0  0  0  0
   -6.2113   -7.1579  -25.6071 H   0  0  0  0  0  0  0  0  0  0  0  0
   -9.5576   -8.4489  -24.4983 H   0  0  0  0  0  0  0  0  0  0  0  0
   -9.5110   -8.4458  -21.7381 H   0  0  0  0  0  0  0  0  0  0  0  0
   -5.1287   -6.2497  -23.6413 H   0  0  0  0  0  0  0  0  0  0  0  0
   -5.7745   -5.6168  -22.1030 H   0  0  0  0  0  0  0  0  0  0  0  0
   -5.8717   -4.2452  -24.9464 C   0  0  0  0  0  0  0  0  0  0  0  0
   -5.0755   -4.9106  -25.6005 O   0  0  0  0  0  0  0  0  0  0  0  0
   -6.1890   -2.8306  -25.3129 C   0  0  0  0  0  0  0  0  0  0  0  0
   -5.6833   -2.3659  -26.5279 C   0  0  0  0  0  0  0  0  0  0  0  0
   -5.8172   -1.0412  -26.8921 C   0  0  0  0  0  0  0  0  0  0  0  0
   -6.4803   -0.2003  -26.0072 C   0  0  0  0  0  0  0  0  0  0  0  0
   -6.5946    1.1015  -26.3291 F   0  0  0  0  0  0  0  0  0  0  0  0
   -7.0457   -0.6509  -24.8247 C   0  0  0  0  0  0  0  0  0  0  0  0
   -6.9236   -2.0000  -24.4533 C   0  0  0  0  0  0  0  0  0  0  0  0
   -7.6165    0.0595  -24.2382 H   0  0  0  0  0  0  0  0  0  0  0  0
   -5.4222   -0.6520  -27.8256 H   0  0  0  0  0  0  0  0  0  0  0  0
   -5.1745   -3.0772  -27.1719 H   0  0  0  0  0  0  0  0  0  0  0  0
   -7.9887   -4.5229  -22.3911 H   0  0  0  0  0  0  0  0  0  0  0  0
   -8.5723   -4.2667  -24.0447 H   0  0  0  0  0  0  0  0  0  0  0  0
   -9.3812   -0.4862  -21.1616 H   0  0  0  0  0  0  0  0  0  0  0  0
   -8.3284    0.2519  -22.3664 H   0  0  0  0  0  0  0  0  0  0  0  0
   -9.3244   -1.3570  -23.8307 H   0  0  0  0  0  0  0  0  0  0  0  0
  -10.9492   -2.0071  -22.0914 H   0  0  0  0  0  0  0  0  0  0  0  0
   -9.7985   -3.1584  -21.3932 H   0  0  0  0  0  0  0  0  0  0  0  0
  -10.4366   -3.4067  -23.0361 H   0  0  0  0  0  0  0  0  0  0  0  0
  1  2  1  0
  2  3  1  0
  3  4  1  0
  4  5  1  0
  5  6  2  0
  6  7  1  0
  7  8  2  0
  8  9  1  0
  9 10  2  0
 10 11  1  0
 11 12  2  0
 12 13  1  0
 13 14  2  0
 13 15  1  0
 12 16  1  0
 11 17  1  0
 10 18  1  0
  8 19  1  0
  6 20  1  0
  4 21  1  0
 21 22  2  0
 21 23  1  0
 23 24  1  6
 24 25  1  0
 25 26  1  0
 26 27  1  0
 27 28  2  0
 28 29  1  0
 29 30  2  0
 30 31  1  0
 31 32  1  0
 32 33  1  0
 32 34  1  0
 32 35  1  0
 30 36  1  0
 29 37  1  0
 26 38  1  0
 26 39  1  0
 25 40  1  0
 40 41  2  0
 40 42  1  0
 42 43  2  0
 43 44  1  0
 44 45  2  0
 45 46  1  0
 45 47  1  0
 47 48  2  0
 47 49  1  0
 44 50  1  0
 43 51  1  0
 24 52  1  0
 24 53  1  0
  3 54  1  0
  3 55  1  0
  2 56  1  6
  1 57  1  0
  1 58  1  0
  1 59  1  0
 23  2  1  0
 31 27  1  0
 48 42  1  0
 14  5  1  0
 48 23  1  0
 14  9  1  0
M  END
>  <cnnaffinities>  (5) 
[5.62279, 5.24794, 5.67955]

>  <score>  (5) 
5.62279

>  <index>  (5) 
4

>  <Smiles>  (5) 
C([C@]1(C(N(c2c(nc(c3c(c(c(c(c23)[H])[H])[H])[H])[H])[H])C(=O)[C@]21C(N(C(c1nc(c(n1C([H])([H])[H])[H])[H])([H])[H])C(=O)c1c(c(c(F)c(c21)[H])[H])[H])([H])[H])([H])[H])[H])([H])([H])[H]

>  <h>  (5) 
<NA>

>  <Training>  (5) 
True

>  <Success>  (5) 
True

>  <enamine_searched>  (5) 
False

>  <enamine_id>  (5) 
nan

$$$$

     RDKit          3D

 58 61  0  0  0  0  0  0  0  0999 V2000
   -5.0830   -3.0545  -22.4181 C   0  0  0  0  0  0  0  0  0  0  0  0
   -6.4028   -3.2196  -22.4034 C   0  0  0  0  0  0  0  0  0  0  0  0
   -7.3865   -2.7682  -21.3604 C   0  0  0  0  0  0  0  0  0  0  0  0
   -7.4263   -1.3217  -21.1998 N   0  0  0  0  0  0  0  0  0  0  0  0
   -8.2545   -0.4539  -21.9009 C   0  0  0  0  0  0  0  0  0  0  0  0
   -8.3913    0.6921  -21.5120 O   0  0  0  0  0  0  0  0  0  0  0  0
   -8.9652   -0.9544  -23.1780 C   0  0  2  0  0  0  0  0  0  0  0  0
   -8.4914   -0.1254  -24.3980 C   0  0  0  0  0  0  0  0  0  0  0  0
   -9.0133    1.2410  -24.3885 N   0  0  0  0  0  0  0  0  0  0  0  0
   -8.1805    2.3161  -24.8920 C   0  0  0  0  0  0  0  0  0  0  0  0
   -7.1614    2.7716  -23.8470 C   0  0  0  0  0  0  0  0  0  0  0  0
   -5.9779    2.4942  -23.9529 O   0  0  0  0  0  0  0  0  0  0  0  0
   -7.6479    3.5077  -22.8136 N   0  0  0  0  0  0  0  0  0  0  0  0
   -6.7406    3.8682  -21.7371 C   0  0  0  0  0  0  0  0  0  0  0  0
   -7.2683    4.5096  -21.0295 H   0  0  0  0  0  0  0  0  0  0  0  0
   -5.8893    4.4233  -22.1383 H   0  0  0  0  0  0  0  0  0  0  0  0
   -6.3571    2.9647  -21.2388 H   0  0  0  0  0  0  0  0  0  0  0  0
   -8.6312    3.4427  -22.6025 H   0  0  0  0  0  0  0  0  0  0  0  0
   -8.8386    3.1425  -25.1706 H   0  0  0  0  0  0  0  0  0  0  0  0
   -7.6424    1.9809  -25.7819 H   0  0  0  0  0  0  0  0  0  0  0  0
  -10.2664    1.5645  -23.9496 C   0  0  0  0  0  0  0  0  0  0  0  0
  -10.7053    2.7088  -24.0151 O   0  0  0  0  0  0  0  0  0  0  0  0
  -11.0681    0.4454  -23.3667 C   0  0  0  0  0  0  0  0  0  0  0  0
  -12.4296    0.6531  -23.1434 C   0  0  0  0  0  0  0  0  0  0  0  0
  -13.1929   -0.3248  -22.5374 C   0  0  0  0  0  0  0  0  0  0  0  0
  -12.5747   -1.5073  -22.1346 C   0  0  0  0  0  0  0  0  0  0  0  0
  -13.4757   -2.6616  -21.1932 Cl  0  0  0  0  0  0  0  0  0  0  0  0
  -11.2295   -1.7356  -22.3801 C   0  0  0  0  0  0  0  0  0  0  0  0
  -10.4616   -0.7573  -23.0100 C   0  0  0  0  0  0  0  0  0  0  0  0
  -10.7886   -2.6807  -22.0746 H   0  0  0  0  0  0  0  0  0  0  0  0
  -14.2516   -0.1755  -22.3550 H   0  0  0  0  0  0  0  0  0  0  0  0
  -12.8669    1.5992  -23.4425 H   0  0  0  0  0  0  0  0  0  0  0  0
   -7.3957   -0.0715  -24.4009 H   0  0  0  0  0  0  0  0  0  0  0  0
   -8.8162   -0.6347  -25.3165 H   0  0  0  0  0  0  0  0  0  0  0  0
   -8.7356   -2.0148  -23.3699 H   0  0  0  0  0  0  0  0  0  0  0  0
   -6.6432   -0.7541  -20.1655 C   0  0  0  0  0  0  0  0  0  0  0  0
   -6.9395   -1.0414  -18.8573 C   0  0  0  0  0  0  0  0  0  0  0  0
   -6.2579   -0.5559  -17.7997 N   0  0  0  0  0  0  0  0  0  0  0  0
   -5.2151    0.2018  -18.0548 C   0  0  0  0  0  0  0  0  0  0  0  0
   -4.7973    0.5704  -19.3635 C   0  0  0  0  0  0  0  0  0  0  0  0
   -3.6603    1.3897  -19.5906 C   0  0  0  0  0  0  0  0  0  0  0  0
   -3.3135    1.7652  -20.8602 C   0  0  0  0  0  0  0  0  0  0  0  0
   -4.0977    1.3601  -21.9607 C   0  0  0  0  0  0  0  0  0  0  0  0
   -5.1734    0.5227  -21.7685 C   0  0  0  0  0  0  0  0  0  0  0  0
   -5.5589    0.1185  -20.4627 C   0  0  0  0  0  0  0  0  0  0  0  0
   -5.7318    0.1601  -22.6266 H   0  0  0  0  0  0  0  0  0  0  0  0
   -3.8527    1.7059  -22.9606 H   0  0  0  0  0  0  0  0  0  0  0  0
   -2.4313    2.3808  -21.0279 H   0  0  0  0  0  0  0  0  0  0  0  0
   -3.0844    1.7202  -18.7324 H   0  0  0  0  0  0  0  0  0  0  0  0
   -4.6554    0.5800  -17.2001 H   0  0  0  0  0  0  0  0  0  0  0  0
   -7.7908   -1.6843  -18.6349 H   0  0  0  0  0  0  0  0  0  0  0  0
   -8.3441   -3.1615  -21.7092 H   0  0  0  0  0  0  0  0  0  0  0  0
   -7.1122   -3.1821  -20.3887 H   0  0  0  0  0  0  0  0  0  0  0  0
   -7.1483   -3.8672  -23.5565 C   0  0  0  0  0  0  0  0  0  0  0  0
   -8.3890   -3.8683  -23.4497 O   0  0  0  0  0  0  0  0  0  0  0  0
   -6.4513   -4.3008  -24.4909 O   0  0  0  0  0  1  0  0  0  0  0  0
   -4.4601   -3.4342  -23.2249 H   0  0  0  0  0  0  0  0  0  0  0  0
   -4.6064   -2.4919  -21.6142 H   0  0  0  0  0  0  0  0  0  0  0  0
  1  2  2  0
  2  3  1  0
  3  4  1  0
  4  5  1  0
  5  6  2  0
  5  7  1  0
  7  8  1  0
  8  9  1  0
  9 10  1  0
 10 11  1  0
 11 12  2  0
 11 13  1  0
 13 14  1  0
 14 15  1  0
 14 16  1  0
 14 17  1  0
 13 18  1  0
 10 19  1  0
 10 20  1  0
  9 21  1  0
 21 22  2  0
 21 23  1  0
 23 24  2  0
 24 25  1  0
 25 26  2  0
 26 27  1  0
 26 28  1  0
 28 29  2  0
 28 30  1  0
 25 31  1  0
 24 32  1  0
  8 33  1  0
  8 34  1  0
  7 35  1  6
  4 36  1  0
 36 37  2  0
 37 38  1  0
 38 39  2  0
 39 40  1  0
 40 41  2  0
 41 42  1  0
 42 43  2  0
 43 44  1  0
 44 45  2  0
 44 46  1  0
 43 47  1  0
 42 48  1  0
 41 49  1  0
 39 50  1  0
 37 51  1  0
  3 52  1  0
  3 53  1  0
  2 54  1  0
 54 55  2  0
 54 56  1  0
  1 57  1  0
  1 58  1  0
 29  7  1  0
 45 36  1  0
 29 23  1  0
 45 40  1  0
M  CHG  1  56  -1
M  END
>  <cnnaffinities>  (6) 
[5.55531]

>  <score>  (6) 
5.55531

>  <index>  (6) 
5

>  <Smiles>  (6) 
C(=C(C(N(C(=O)[C@@]1(C(N(C(C(=O)N(C([H])([H])[H])[H])([H])[H])C(=O)c2c(c(c(Cl)c(c12)[H])[H])[H])([H])[H])[H])c1c(nc(c2c(c(c(c(c12)[H])[H])[H])[H])[H])[H])([H])[H])C(=O)[O-])([H])[H]

>  <h>  (6) 
<NA>

>  <Training>  (6) 
True

>  <Success>  (6) 
True

>  <enamine_searched>  (6) 
False

>  <enamine_id>  (6) 
nan

$$$$

     RDKit          3D

 43 45  0  0  0  0  0  0  0  0999 V2000
  -10.4064   -6.7683  -25.6786 C   0  0  0  0  0  0  0  0  0  0  0  0
   -9.2114   -6.8131  -24.7298 C   0  0  0  0  0  0  0  0  0  0  0  0
   -9.2510   -5.7689  -23.6053 C   0  0  0  0  0  0  0  0  0  0  0  0
   -9.2339   -4.2962  -24.0628 C   0  0  0  0  0  0  0  0  0  0  0  0
   -8.9133   -3.4018  -22.8670 C   0  0  0  0  0  0  0  0  0  0  0  0
   -7.5930   -3.7109  -22.3119 N   0  0  0  0  0  0  0  0  0  0  0  0
   -6.7449   -2.8117  -21.7240 C   0  0  0  0  0  0  0  0  0  0  0  0
   -5.5572   -3.0415  -21.5618 O   0  0  0  0  0  0  0  0  0  0  0  0
   -7.3917   -1.5051  -21.2573 C   0  0  0  0  0  0  0  0  0  0  0  0
   -6.6151   -0.8091  -20.1766 C   0  0  0  0  0  0  0  0  0  0  0  0
   -6.8992   -1.0643  -18.8595 C   0  0  0  0  0  0  0  0  0  0  0  0
   -6.2099   -0.5857  -17.7909 N   0  0  0  0  0  0  0  0  0  0  0  0
   -5.1994    0.2124  -18.0499 C   0  0  0  0  0  0  0  0  0  0  0  0
   -4.7983    0.5786  -19.3638 C   0  0  0  0  0  0  0  0  0  0  0  0
   -3.6622    1.3985  -19.5875 C   0  0  0  0  0  0  0  0  0  0  0  0
   -3.2992    1.7462  -20.8609 C   0  0  0  0  0  0  0  0  0  0  0  0
   -4.0719    1.3111  -21.9640 C   0  0  0  0  0  0  0  0  0  0  0  0
   -5.1451    0.4705  -21.7728 C   0  0  0  0  0  0  0  0  0  0  0  0
   -5.5262    0.0696  -20.4634 C   0  0  0  0  0  0  0  0  0  0  0  0
   -5.7016    0.1021  -22.6299 H   0  0  0  0  0  0  0  0  0  0  0  0
   -3.8067    1.6430  -22.9666 H   0  0  0  0  0  0  0  0  0  0  0  0
   -2.4138    2.3546  -21.0342 H   0  0  0  0  0  0  0  0  0  0  0  0
   -3.0787    1.7113  -18.7225 H   0  0  0  0  0  0  0  0  0  0  0  0
   -4.6273    0.6004  -17.2058 H   0  0  0  0  0  0  0  0  0  0  0  0
   -7.7400   -1.7096  -18.5973 H   0  0  0  0  0  0  0  0  0  0  0  0
   -8.3879   -1.7670  -20.8808 H   0  0  0  0  0  0  0  0  0  0  0  0
   -7.5383   -0.8661  -22.1390 H   0  0  0  0  0  0  0  0  0  0  0  0
   -7.0614   -5.0424  -22.5443 C   0  0  0  0  0  0  0  0  0  0  0  0
   -8.1672   -6.0833  -22.5454 C   0  0  0  0  0  0  0  0  0  0  0  0
   -8.6320   -6.1599  -21.5575 H   0  0  0  0  0  0  0  0  0  0  0  0
   -7.7244   -7.0708  -22.7323 H   0  0  0  0  0  0  0  0  0  0  0  0
   -6.3131   -5.2226  -21.7727 H   0  0  0  0  0  0  0  0  0  0  0  0
   -6.5385   -5.0705  -23.5080 H   0  0  0  0  0  0  0  0  0  0  0  0
   -9.6987   -3.5748  -22.1195 H   0  0  0  0  0  0  0  0  0  0  0  0
   -8.9490   -2.3455  -23.1463 H   0  0  0  0  0  0  0  0  0  0  0  0
  -10.2259   -4.0292  -24.4562 H   0  0  0  0  0  0  0  0  0  0  0  0
   -8.5234   -4.1070  -24.8739 H   0  0  0  0  0  0  0  0  0  0  0  0
  -10.2175   -5.8551  -23.1137 H   0  0  0  0  0  0  0  0  0  0  0  0
   -8.2767   -6.6913  -25.2901 H   0  0  0  0  0  0  0  0  0  0  0  0
   -9.1540   -7.8116  -24.2685 H   0  0  0  0  0  0  0  0  0  0  0  0
  -10.3511   -7.5503  -26.4474 H   0  0  0  0  0  0  0  0  0  0  0  0
  -10.4718   -5.8035  -26.1958 H   0  0  0  0  0  0  0  0  0  0  0  0
  -11.3394   -6.9153  -25.1211 H   0  0  0  0  0  0  0  0  0  0  0  0
  1  2  1  0
  2  3  1  0
  3  4  1  0
  4  5  1  0
  5  6  1  0
  6  7  1  0
  7  8  2  0
  7  9  1  0
  9 10  1  0
 10 11  2  0
 11 12  1  0
 12 13  2  0
 13 14  1  0
 14 15  2  0
 15 16  1  0
 16 17  2  0
 17 18  1  0
 18 19  2  0
 18 20  1  0
 17 21  1  0
 16 22  1  0
 15 23  1  0
 13 24  1  0
 11 25  1  0
  9 26  1  0
  9 27  1  0
  6 28  1  0
 28 29  1  0
 29 30  1  0
 29 31  1  0
 28 32  1  0
 28 33  1  0
  5 34  1  0
  5 35  1  0
  4 36  1  0
  4 37  1  0
  3 38  1  0
  2 39  1  0
  2 40  1  0
  1 41  1  0
  1 42  1  0
  1 43  1  0
 29  3  1  0
 19 10  1  0
 19 14  1  0
M  END
>  <cnnaffinities>  (7) 
[4.09592, 4.09787, 4.05629, 4.37607, 4.37614, 4.41859, 4.53251]

>  <score>  (7) 
4.09592

>  <index>  (7) 
6

>  <Smiles>  (7) 
C(C(C1(C(C(N(C(=O)C(c2c(nc(c3c(c(c(c(c23)[H])[H])[H])[H])[H])[H])([H])[H])C(C1([H])[H])([H])[H])([H])[H])([H])[H])[H])([H])[H])([H])([H])[H]

>  <h>  (7) 
<NA>

>  <Training>  (7) 
True

>  <Success>  (7) 
True

>  <enamine_searched>  (7) 
False

>  <enamine_id>  (7) 
nan

$$$$

     RDKit          3D

 44 47  0  0  0  0  0  0  0  0999 V2000
   -8.3269   -7.7604  -23.6048 C   0  0  0  0  0  0  0  0  0  0  0  0
   -8.5557   -7.2762  -25.0328 C   0  0  0  0  0  0  0  0  0  0  0  0
   -9.1894   -5.6031  -25.0222 S   0  0  0  0  0  0  0  0  0  0  0  0
  -10.4414   -5.6318  -24.2764 O   0  0  0  0  0  0  0  0  0  0  0  0
   -9.1274   -5.0861  -26.3763 O   0  0  0  0  0  0  0  0  0  0  0  0
   -8.0077   -4.7783  -24.1479 N   0  0  0  0  0  0  0  0  0  0  0  0
   -8.1048   -4.7087  -22.6771 C   0  0  0  0  0  0  0  0  0  0  0  0
   -8.0560   -3.1587  -22.7335 C   0  0  0  0  0  0  0  0  0  0  0  0
   -7.9672   -3.3016  -24.2805 C   0  0  0  0  0  0  0  0  0  0  0  0
   -8.8141   -2.8828  -24.8280 H   0  0  0  0  0  0  0  0  0  0  0  0
   -7.0281   -2.9587  -24.7179 H   0  0  0  0  0  0  0  0  0  0  0  0
   -6.8515   -2.5369  -22.0533 C   0  0  0  0  0  0  0  0  0  0  0  0
   -5.7015   -2.8746  -22.1743 O   0  0  0  0  0  0  0  0  0  0  0  0
   -7.3362   -1.5007  -21.2487 N   0  0  0  0  0  0  0  0  0  0  0  0
   -6.6135   -0.8461  -20.2114 C   0  0  0  0  0  0  0  0  0  0  0  0
   -6.9435   -1.0743  -18.8940 C   0  0  0  0  0  0  0  0  0  0  0  0
   -6.2532   -0.5768  -17.8361 N   0  0  0  0  0  0  0  0  0  0  0  0
   -5.2273    0.1941  -18.1020 C   0  0  0  0  0  0  0  0  0  0  0  0
   -4.8117    0.5428  -19.4165 C   0  0  0  0  0  0  0  0  0  0  0  0
   -3.6798    1.3699  -19.6249 C   0  0  0  0  0  0  0  0  0  0  0  0
   -3.3078    1.7221  -20.8920 C   0  0  0  0  0  0  0  0  0  0  0  0
   -4.0692    1.2926  -22.0028 C   0  0  0  0  0  0  0  0  0  0  0  0
   -5.1506    0.4570  -21.8313 C   0  0  0  0  0  0  0  0  0  0  0  0
   -5.5315    0.0383  -20.5207 C   0  0  0  0  0  0  0  0  0  0  0  0
   -5.7015    0.1003  -22.6989 H   0  0  0  0  0  0  0  0  0  0  0  0
   -3.7651    1.5926  -23.0037 H   0  0  0  0  0  0  0  0  0  0  0  0
   -2.4238    2.3341  -21.0548 H   0  0  0  0  0  0  0  0  0  0  0  0
   -3.1197    1.6932  -18.7512 H   0  0  0  0  0  0  0  0  0  0  0  0
   -4.6491    0.5886  -17.2646 H   0  0  0  0  0  0  0  0  0  0  0  0
   -7.7911   -1.7089  -18.6386 H   0  0  0  0  0  0  0  0  0  0  0  0
   -8.7132   -1.3074  -21.4475 C   0  0  0  0  0  0  0  0  0  0  0  0
   -9.3497   -0.3587  -21.0552 O   0  0  0  0  0  0  0  0  0  0  0  0
   -9.1388   -2.3832  -22.1821 N   0  0  0  0  0  0  0  0  0  0  0  0
  -10.5285   -2.6036  -22.5064 C   0  0  0  0  0  0  0  0  0  0  0  0
  -11.0657   -3.0178  -21.6495 H   0  0  0  0  0  0  0  0  0  0  0  0
  -10.6019   -3.3124  -23.3331 H   0  0  0  0  0  0  0  0  0  0  0  0
  -10.9814   -1.6547  -22.7961 H   0  0  0  0  0  0  0  0  0  0  0  0
   -7.2134   -5.1515  -22.2249 H   0  0  0  0  0  0  0  0  0  0  0  0
   -9.0153   -5.1576  -22.2726 H   0  0  0  0  0  0  0  0  0  0  0  0
   -9.3419   -7.8523  -25.5383 H   0  0  0  0  0  0  0  0  0  0  0  0
   -7.6491   -7.2840  -25.6546 H   0  0  0  0  0  0  0  0  0  0  0  0
   -7.5422   -7.1738  -23.1227 H   0  0  0  0  0  0  0  0  0  0  0  0
   -8.0210   -8.8012  -23.5547 H   0  0  0  0  0  0  0  0  0  0  0  0
   -9.2306   -7.6439  -23.0077 H   0  0  0  0  0  0  0  0  0  0  0  0
  1  2  1  0
  2  3  1  0
  3  4  2  0
  3  5  2  0
  3  6  1  0
  6  7  1  0
  7  8  1  0
  8  9  1  0
  9 10  1  0
  9 11  1  0
  8 12  1  0
 12 13  2  0
 12 14  1  0
 14 15  1  0
 15 16  2  0
 16 17  1  0
 17 18  2  0
 18 19  1  0
 19 20  2  0
 20 21  1  0
 21 22  2  0
 22 23  1  0
 23 24  2  0
 23 25  1  0
 22 26  1  0
 21 27  1  0
 20 28  1  0
 18 29  1  0
 16 30  1  0
 14 31  1  0
 31 32  2  0
 31 33  1  0
 33 34  1  0
 34 35  1  0
 34 36  1  0
 34 37  1  0
  7 38  1  0
  7 39  1  0
  2 40  1  0
  2 41  1  0
  1 42  1  0
  1 43  1  0
  1 44  1  0
  9  6  1  0
 24 15  1  0
 33  8  1  0
 24 19  1  0
M  END
>  <cnnaffinities>  (8) 
[4.68177, 5.17705, 5.17606, 5.18142, 5.17659, 4.64485, 4.64522, 5.14103]

>  <score>  (8) 
4.68177

>  <index>  (8) 
7

>  <Smiles>  (8) 
C(C(S(=O)(=O)N1C(C2(C1([H])[H])C(=O)N(c1c(nc(c3c(c(c(c(c13)[H])[H])[H])[H])[H])[H])C(=O)N2C([H])([H])[H])([H])[H])([H])[H])([H])([H])[H]

>  <h>  (8) 
<NA>

>  <Training>  (8) 
True

>  <Success>  (8) 
True

>  <enamine_searched>  (8) 
False

>  <enamine_id>  (8) 
nan

$$$$

     RDKit          3D

 60 64  0  0  0  0  0  0  0  0999 V2000
   -7.4198    3.4227  -21.8577 C   0  0  0  0  0  0  0  0  0  0  0  0
   -8.2965    2.9536  -22.9136 N   0  0  0  0  0  0  0  0  0  0  0  0
   -7.7387    2.2139  -23.9133 C   0  0  0  0  0  0  0  0  0  0  0  0
   -6.5345    2.0584  -24.0240 O   0  0  0  0  0  0  0  0  0  0  0  0
   -8.7154    1.6003  -24.9107 C   0  0  0  0  0  0  0  0  0  0  0  0
   -9.4112    0.4639  -24.3549 N   0  0  0  0  0  0  0  0  0  0  0  0
   -8.6760   -0.7728  -24.1843 C   0  0  0  0  0  0  0  0  0  0  0  0
   -9.0583   -1.4917  -22.8761 C   0  0  2  0  0  0  0  0  0  0  0  0
   -8.5160   -0.7182  -21.6584 C   0  0  0  0  0  0  0  0  0  0  0  0
   -8.9587    0.2974  -21.1673 O   0  0  0  0  0  0  0  0  0  0  0  0
   -7.4001   -1.3685  -21.1926 N   0  0  0  0  0  0  0  0  0  0  0  0
   -6.6153   -0.7856  -20.1679 C   0  0  0  0  0  0  0  0  0  0  0  0
   -6.9203   -1.0452  -18.8567 C   0  0  0  0  0  0  0  0  0  0  0  0
   -6.2160   -0.5682  -17.8017 N   0  0  0  0  0  0  0  0  0  0  0  0
   -5.1936    0.2119  -18.0629 C   0  0  0  0  0  0  0  0  0  0  0  0
   -4.7814    0.5759  -19.3771 C   0  0  0  0  0  0  0  0  0  0  0  0
   -3.6465    1.3961  -19.6150 C   0  0  0  0  0  0  0  0  0  0  0  0
   -3.2839    1.7339  -20.8917 C   0  0  0  0  0  0  0  0  0  0  0  0
   -4.0604    1.3010  -21.9916 C   0  0  0  0  0  0  0  0  0  0  0  0
   -5.1415    0.4717  -21.7914 C   0  0  0  0  0  0  0  0  0  0  0  0
   -5.5189    0.0755  -20.4775 C   0  0  0  0  0  0  0  0  0  0  0  0
   -5.7063    0.1157  -22.6488 H   0  0  0  0  0  0  0  0  0  0  0  0
   -3.7856    1.5923  -23.0027 H   0  0  0  0  0  0  0  0  0  0  0  0
   -2.4023    2.3479  -21.0683 H   0  0  0  0  0  0  0  0  0  0  0  0
   -3.0701    1.7339  -18.7570 H   0  0  0  0  0  0  0  0  0  0  0  0
   -4.6165    0.5867  -17.2158 H   0  0  0  0  0  0  0  0  0  0  0  0
   -7.7788   -1.6721  -18.6176 H   0  0  0  0  0  0  0  0  0  0  0  0
   -7.0613   -2.5760  -21.9161 C   0  0  0  0  0  0  0  0  0  0  0  0
   -8.3274   -2.8598  -22.7481 C   0  0  2  0  0  0  0  0  0  0  0  0
   -8.0081   -3.6082  -24.0509 C   0  0  0  0  0  0  0  0  0  0  0  0
   -7.4510   -4.8821  -23.7944 O   0  0  0  0  0  0  0  0  0  0  0  0
   -8.3788   -5.9383  -23.8563 C   0  0  0  0  0  0  0  0  0  0  0  0
   -9.2446   -5.7775  -23.1906 H   0  0  0  0  0  0  0  0  0  0  0  0
   -7.8548   -6.8445  -23.5382 H   0  0  0  0  0  0  0  0  0  0  0  0
   -8.7529   -6.0965  -24.8824 H   0  0  0  0  0  0  0  0  0  0  0  0
   -7.2480   -3.0503  -24.6139 H   0  0  0  0  0  0  0  0  0  0  0  0
   -8.8984   -3.6995  -24.6973 H   0  0  0  0  0  0  0  0  0  0  0  0
   -8.9734   -3.5213  -22.1672 H   0  0  0  0  0  0  0  0  0  0  0  0
   -6.8209   -3.3895  -21.2256 H   0  0  0  0  0  0  0  0  0  0  0  0
   -6.1891   -2.4133  -22.5661 H   0  0  0  0  0  0  0  0  0  0  0  0
  -10.5688   -1.5508  -22.8077 C   0  0  0  0  0  0  0  0  0  0  0  0
  -11.1941   -2.4565  -21.9485 C   0  0  0  0  0  0  0  0  0  0  0  0
  -12.5724   -2.4699  -21.8433 C   0  0  0  0  0  0  0  0  0  0  0  0
  -13.2979   -3.5718  -20.7034 Cl  0  0  0  0  0  0  0  0  0  0  0  0
  -13.3775   -1.5985  -22.5802 C   0  0  0  0  0  0  0  0  0  0  0  0
  -12.7647   -0.6664  -23.3952 C   0  0  0  0  0  0  0  0  0  0  0  0
  -11.3751   -0.6245  -23.4837 C   0  0  0  0  0  0  0  0  0  0  0  0
  -10.7751    0.4968  -24.2670 C   0  0  0  0  0  0  0  0  0  0  0  0
  -11.4565    1.3892  -24.7558 O   0  0  0  0  0  0  0  0  0  0  0  0
  -13.3308    0.0622  -23.9679 H   0  0  0  0  0  0  0  0  0  0  0  0
  -14.4564   -1.6628  -22.4878 H   0  0  0  0  0  0  0  0  0  0  0  0
  -10.6133   -3.1473  -21.3461 H   0  0  0  0  0  0  0  0  0  0  0  0
   -7.6083   -0.5341  -24.1962 H   0  0  0  0  0  0  0  0  0  0  0  0
   -8.8987   -1.4447  -25.0215 H   0  0  0  0  0  0  0  0  0  0  0  0
   -8.1232    1.3054  -25.7824 H   0  0  0  0  0  0  0  0  0  0  0  0
   -9.4891    2.3178  -25.1898 H   0  0  0  0  0  0  0  0  0  0  0  0
   -9.2545    2.7635  -22.6603 H   0  0  0  0  0  0  0  0  0  0  0  0
   -6.6640    4.0804  -22.2816 H   0  0  0  0  0  0  0  0  0  0  0  0
   -6.8955    2.5841  -21.3878 H   0  0  0  0  0  0  0  0  0  0  0  0
   -7.9799    3.9732  -21.1004 H   0  0  0  0  0  0  0  0  0  0  0  0
  1  2  1  0
  2  3  1  0
  3  4  2  0
  3  5  1  0
  5  6  1  0
  6  7  1  0
  8  7  1  6
  8  9  1  0
  9 10  2  0
  9 11  1  0
 11 12  1  0
 12 13  2  0
 13 14  1  0
 14 15  2  0
 15 16  1  0
 16 17  2  0
 17 18  1  0
 18 19  2  0
 19 20  1  0
 20 21  2  0
 20 22  1  0
 19 23  1  0
 18 24  1  0
 17 25  1  0
 15 26  1  0
 13 27  1  0
 11 28  1  0
 28 29  1  0
 29 30  1  0
 30 31  1  0
 31 32  1  0
 32 33  1  0
 32 34  1  0
 32 35  1  0
 30 36  1  0
 30 37  1  0
 29 38  1  1
 28 39  1  0
 28 40  1  0
  8 41  1  0
 41 42  2  0
 42 43  1  0
 43 44  1  0
 43 45  2  0
 45 46  1  0
 46 47  2  0
 47 48  1  0
 48 49  2  0
 46 50  1  0
 45 51  1  0
 42 52  1  0
  7 53  1  0
  7 54  1  0
  5 55  1  0
  5 56  1  0
  2 57  1  0
  1 58  1  0
  1 59  1  0
  1 60  1  0
 48  6  1  0
 29  8  1  0
 47 41  1  0
 21 12  1  0
 21 16  1  0
M  END
>  <cnnaffinities>  (9) 
[5.7119, 5.60821, 6.09414]

>  <score>  (9) 
5.7119

>  <index>  (9) 
8

>  <Smiles>  (9) 
C(N(C(=O)C(N1C([C@@]2(C(=O)N(c3c(nc(c4c(c(c(c(c34)[H])[H])[H])[H])[H])[H])C([C@@]2(C(OC([H])([H])[H])([H])[H])[H])([H])[H])c2c(c(Cl)c(c(c2C1=O)[H])[H])[H])([H])[H])([H])[H])[H])([H])([H])[H]

>  <h>  (9) 
<NA>

>  <Training>  (9) 
True

>  <Success>  (9) 
True

>  <enamine_searched>  (9) 
False

>  <enamine_id>  (9) 
nan

$$$$

     RDKit          3D

 41 43  0  0  0  0  0  0  0  0999 V2000
   -8.3110   -7.3319  -23.4979 C   0  0  0  0  0  0  0  0  0  0  0  0
   -8.1218   -5.8251  -23.7175 C   0  0  1  0  0  0  0  0  0  0  0  0
   -9.1571   -4.9970  -22.9926 C   0  0  0  0  0  0  0  0  0  0  0  0
   -9.2945   -3.6733  -23.0630 C   0  0  0  0  0  0  0  0  0  0  0  0
   -8.2778   -2.7372  -23.6609 C   0  0  0  0  0  0  0  0  0  0  0  0
   -6.9077   -2.9505  -23.2149 N   0  0  0  0  0  0  0  0  0  0  0  0
   -6.4985   -2.5379  -21.9645 C   0  0  0  0  0  0  0  0  0  0  0  0
   -5.4946   -2.9818  -21.4321 O   0  0  0  0  0  0  0  0  0  0  0  0
   -7.3463   -1.4503  -21.2808 C   0  0  0  0  0  0  0  0  0  0  0  0
   -6.6134   -0.7858  -20.1621 C   0  0  0  0  0  0  0  0  0  0  0  0
   -6.8960   -1.0825  -18.8570 C   0  0  0  0  0  0  0  0  0  0  0  0
   -6.2291   -0.5919  -17.7808 N   0  0  0  0  0  0  0  0  0  0  0  0
   -5.2090    0.1970  -18.0302 C   0  0  0  0  0  0  0  0  0  0  0  0
   -4.7941    0.5771  -19.3368 C   0  0  0  0  0  0  0  0  0  0  0  0
   -3.6701    1.4161  -19.5582 C   0  0  0  0  0  0  0  0  0  0  0  0
   -3.3574    1.8371  -20.8218 C   0  0  0  0  0  0  0  0  0  0  0  0
   -4.1683    1.4664  -21.9174 C   0  0  0  0  0  0  0  0  0  0  0  0
   -5.2462    0.6311  -21.7326 C   0  0  0  0  0  0  0  0  0  0  0  0
   -5.5567    0.1303  -20.4379 C   0  0  0  0  0  0  0  0  0  0  0  0
   -5.8547    0.3501  -22.5870 H   0  0  0  0  0  0  0  0  0  0  0  0
   -3.9253    1.8287  -22.9124 H   0  0  0  0  0  0  0  0  0  0  0  0
   -2.4967    2.4805  -20.9890 H   0  0  0  0  0  0  0  0  0  0  0  0
   -3.0840    1.7368  -18.7005 H   0  0  0  0  0  0  0  0  0  0  0  0
   -4.6583    0.5772  -17.1704 H   0  0  0  0  0  0  0  0  0  0  0  0
   -7.7075   -1.7713  -18.6189 H   0  0  0  0  0  0  0  0  0  0  0  0
   -8.2703   -1.9079  -20.9008 H   0  0  0  0  0  0  0  0  0  0  0  0
   -7.6432   -0.6956  -22.0157 H   0  0  0  0  0  0  0  0  0  0  0  0
   -6.2135   -4.0829  -23.8215 C   0  0  0  0  0  0  0  0  0  0  0  0
   -6.6818   -5.4484  -23.3272 C   0  0  0  0  0  0  0  0  0  0  0  0
   -6.0060   -6.2162  -23.7313 H   0  0  0  0  0  0  0  0  0  0  0  0
   -6.5784   -5.4830  -22.2374 H   0  0  0  0  0  0  0  0  0  0  0  0
   -6.3744   -4.0212  -24.9051 H   0  0  0  0  0  0  0  0  0  0  0  0
   -5.1440   -3.9741  -23.6391 H   0  0  0  0  0  0  0  0  0  0  0  0
   -8.2616   -2.7839  -24.7549 H   0  0  0  0  0  0  0  0  0  0  0  0
   -8.5837   -1.7230  -23.4215 H   0  0  0  0  0  0  0  0  0  0  0  0
  -10.1842   -3.2103  -22.6310 H   0  0  0  0  0  0  0  0  0  0  0  0
   -9.8455   -5.5259  -22.3500 H   0  0  0  0  0  0  0  0  0  0  0  0
   -8.2511   -5.6237  -24.7925 H   0  0  0  0  0  0  0  0  0  0  0  0
   -8.4963   -7.5492  -22.4407 H   0  0  0  0  0  0  0  0  0  0  0  0
   -9.1489   -7.7348  -24.0802 H   0  0  0  0  0  0  0  0  0  0  0  0
   -7.3995   -7.8778  -23.7785 H   0  0  0  0  0  0  0  0  0  0  0  0
  1  2  1  0
  2  3  1  0
  3  4  2  0
  4  5  1  0
  5  6  1  0
  6  7  1  0
  7  8  2  0
  7  9  1  0
  9 10  1  0
 10 11  2  0
 11 12  1  0
 12 13  2  0
 13 14  1  0
 14 15  2  0
 15 16  1  0
 16 17  2  0
 17 18  1  0
 18 19  2  0
 18 20  1  0
 17 21  1  0
 16 22  1  0
 15 23  1  0
 13 24  1  0
 11 25  1  0
  9 26  1  0
  9 27  1  0
  6 28  1  0
 28 29  1  0
 29 30  1  0
 29 31  1  0
 28 32  1  0
 28 33  1  0
  5 34  1  0
  5 35  1  0
  4 36  1  0
  3 37  1  0
  2 38  1  6
  1 39  1  0
  1 40  1  0
  1 41  1  0
 29  2  1  0
 19 10  1  0
 19 14  1  0
M  END
>  <cnnaffinities>  (10) 
[4.26249]

>  <score>  (10) 
4.26249

>  <index>  (10) 
9

>  <Smiles>  (10) 
C([C@]1(C(=C(C(N(C(=O)C(c2c(nc(c3c(c(c(c(c23)[H])[H])[H])[H])[H])[H])([H])[H])C(C1([H])[H])([H])[H])([H])[H])[H])[H])[H])([H])([H])[H]

>  <h>  (10) 
<NA>

>  <Training>  (10) 
True

>  <Success>  (10) 
True

>  <enamine_searched>  (10) 
False

>  <enamine_id>  (10) 
nan

$$$$

     RDKit          3D

 57 62  0  0  0  0  0  0  0  0999 V2000
  -10.1912   -2.9595  -22.0685 C   0  0  0  0  0  0  0  0  0  0  0  0
   -9.1452   -1.9781  -22.6238 C   0  0  1  0  0  0  0  0  0  0  0  0
   -8.7080   -0.9723  -21.5454 C   0  0  0  0  0  0  0  0  0  0  0  0
   -7.3807   -1.3920  -21.1753 N   0  0  0  0  0  0  0  0  0  0  0  0
   -6.6188   -0.7803  -20.1641 C   0  0  0  0  0  0  0  0  0  0  0  0
   -6.9250   -1.0376  -18.8556 C   0  0  0  0  0  0  0  0  0  0  0  0
   -6.2365   -0.5470  -17.7999 N   0  0  0  0  0  0  0  0  0  0  0  0
   -5.2037    0.2165  -18.0721 C   0  0  0  0  0  0  0  0  0  0  0  0
   -4.7881    0.5624  -19.3903 C   0  0  0  0  0  0  0  0  0  0  0  0
   -3.6568    1.3860  -19.6113 C   0  0  0  0  0  0  0  0  0  0  0  0
   -3.3177    1.7714  -20.8772 C   0  0  0  0  0  0  0  0  0  0  0  0
   -4.1050    1.3670  -21.9804 C   0  0  0  0  0  0  0  0  0  0  0  0
   -5.1867    0.5367  -21.8037 C   0  0  0  0  0  0  0  0  0  0  0  0
   -5.5370    0.0926  -20.4896 C   0  0  0  0  0  0  0  0  0  0  0  0
   -5.7567    0.2033  -22.6739 H   0  0  0  0  0  0  0  0  0  0  0  0
   -3.8307    1.7048  -22.9763 H   0  0  0  0  0  0  0  0  0  0  0  0
   -2.4564    2.4131  -21.0389 H   0  0  0  0  0  0  0  0  0  0  0  0
   -3.0968    1.7256  -18.7444 H   0  0  0  0  0  0  0  0  0  0  0  0
   -4.6381    0.6065  -17.2260 H   0  0  0  0  0  0  0  0  0  0  0  0
   -7.7631   -1.6967  -18.6312 H   0  0  0  0  0  0  0  0  0  0  0  0
   -6.8205   -2.3472  -21.9832 C   0  0  0  0  0  0  0  0  0  0  0  0
   -5.7350   -2.8468  -21.7833 O   0  0  0  0  0  0  0  0  0  0  0  0
   -7.8147   -2.6191  -23.1310 C   0  0  1  0  0  0  0  0  0  0  0  0
   -7.9118   -4.1294  -23.3308 C   0  0  0  0  0  0  0  0  0  0  0  0
   -6.6460   -4.6376  -23.8370 N   0  0  0  0  0  0  0  0  0  0  0  0
   -6.2700   -5.9897  -23.4326 C   0  0  0  0  0  0  0  0  0  0  0  0
   -7.1456   -7.0108  -24.1090 C   0  0  0  0  0  0  0  0  0  0  0  0
   -7.0866   -7.4158  -25.4022 C   0  0  0  0  0  0  0  0  0  0  0  0
   -8.2871   -8.0288  -25.6971 N   0  0  0  0  0  4  0  0  0  0  0  0
   -9.0765   -7.9743  -24.6179 C   0  0  0  0  0  0  0  0  0  0  0  0
   -8.3996   -7.3845  -23.6154 N   0  0  0  0  0  0  0  0  0  0  0  0
   -8.7687   -7.1562  -22.6905 H   0  0  0  0  0  0  0  0  0  0  0  0
  -10.1011   -8.2960  -24.6159 H   0  0  0  0  0  0  0  0  0  0  0  0
   -8.5018   -8.4950  -26.5754 H   0  0  0  0  0  0  0  0  0  0  0  0
   -6.3130   -7.2678  -26.1503 H   0  0  0  0  0  0  0  0  0  0  0  0
   -5.2233   -6.1283  -23.7131 H   0  0  0  0  0  0  0  0  0  0  0  0
   -6.3341   -6.0332  -22.3362 H   0  0  0  0  0  0  0  0  0  0  0  0
   -6.1701   -4.1729  -25.0381 C   0  0  0  0  0  0  0  0  0  0  0  0
   -5.4422   -4.8356  -25.7663 O   0  0  0  0  0  0  0  0  0  0  0  0
   -6.5793   -2.7718  -25.3568 C   0  0  0  0  0  0  0  0  0  0  0  0
   -6.1678   -2.2392  -26.5758 C   0  0  0  0  0  0  0  0  0  0  0  0
   -6.4012   -0.9171  -26.8826 C   0  0  0  0  0  0  0  0  0  0  0  0
   -7.0722   -0.1471  -25.9423 C   0  0  0  0  0  0  0  0  0  0  0  0
   -7.2818    1.1504  -26.2232 F   0  0  0  0  0  0  0  0  0  0  0  0
   -7.5347   -0.6624  -24.7449 C   0  0  0  0  0  0  0  0  0  0  0  0
   -7.3117   -2.0095  -24.4379 C   0  0  0  0  0  0  0  0  0  0  0  0
   -8.0827   -0.0038  -24.0811 H   0  0  0  0  0  0  0  0  0  0  0  0
   -6.0591   -0.4800  -27.8121 H   0  0  0  0  0  0  0  0  0  0  0  0
   -5.6505   -2.8998  -27.2600 H   0  0  0  0  0  0  0  0  0  0  0  0
   -8.1198   -4.6125  -22.3756 H   0  0  0  0  0  0  0  0  0  0  0  0
   -8.7387   -4.3454  -24.0266 H   0  0  0  0  0  0  0  0  0  0  0  0
   -8.7195    0.0658  -21.9018 H   0  0  0  0  0  0  0  0  0  0  0  0
   -9.3667   -1.0104  -20.6852 H   0  0  0  0  0  0  0  0  0  0  0  0
   -9.6321   -1.4585  -23.4553 H   0  0  0  0  0  0  0  0  0  0  0  0
  -11.0634   -2.4061  -21.7049 H   0  0  0  0  0  0  0  0  0  0  0  0
  -10.5430   -3.6482  -22.8432 H   0  0  0  0  0  0  0  0  0  0  0  0
   -9.8034   -3.5541  -21.2329 H   0  0  0  0  0  0  0  0  0  0  0  0
  1  2  1  0
  2  3  1  0
  3  4  1  0
  4  5  1  0
  5  6  2  0
  6  7  1  0
  7  8  2  0
  8  9  1  0
  9 10  2  0
 10 11  1  0
 11 12  2  0
 12 13  1  0
 13 14  2  0
 13 15  1  0
 12 16  1  0
 11 17  1  0
 10 18  1  0
  8 19  1  0
  6 20  1  0
  4 21  1  0
 21 22  2  0
 21 23  1  0
 23 24  1  6
 24 25  1  0
 25 26  1  0
 26 27  1  0
 27 28  2  0
 28 29  1  0
 29 30  2  0
 30 31  1  0
 31 32  1  0
 30 33  1  0
 29 34  1  0
 28 35  1  0
 26 36  1  0
 26 37  1  0
 25 38  1  0
 38 39  2  0
 38 40  1  0
 40 41  2  0
 41 42  1  0
 42 43  2  0
 43 44  1  0
 43 45  1  0
 45 46  2  0
 45 47  1  0
 42 48  1  0
 41 49  1  0
 24 50  1  0
 24 51  1  0
  3 52  1  0
  3 53  1  0
  2 54  1  6
  1 55  1  0
  1 56  1  0
  1 57  1  0
 23  2  1  0
 31 27  1  0
 46 40  1  0
 14  5  1  0
 46 23  1  0
 14  9  1  0
M  CHG  1  29   1
M  END
>  <cnnaffinities>  (11) 
[5.39847, 5.62444]

>  <score>  (11) 
5.39847

>  <index>  (11) 
10

>  <Smiles>  (11) 
C([C@]1(C(N(c2c(nc(c3c(c(c(c(c23)[H])[H])[H])[H])[H])[H])C(=O)[C@]21C(N(C(c1c([n+](c(n1[H])[H])[H])[H])([H])[H])C(=O)c1c(c(c(F)c(c21)[H])[H])[H])([H])[H])([H])[H])[H])([H])([H])[H]

>  <h>  (11) 
<NA>

>  <Training>  (11) 
True

>  <Success>  (11) 
True

>  <enamine_searched>  (11) 
False

>  <enamine_id>  (11) 
nan

$$$$

     RDKit          3D

 48 52  0  0  0  0  0  0  0  0999 V2000
  -10.1253   -0.8054  -23.6515 C   0  0  0  0  0  0  0  0  0  0  0  0
   -9.1135   -1.2895  -22.7402 N   0  0  0  0  0  0  0  0  0  0  0  0
   -8.4046   -0.4147  -21.9710 C   0  0  0  0  0  0  0  0  0  0  0  0
   -8.5206    0.7870  -21.9212 O   0  0  0  0  0  0  0  0  0  0  0  0
   -7.4793   -1.1812  -21.2552 N   0  0  0  0  0  0  0  0  0  0  0  0
   -6.6836   -0.6652  -20.2074 C   0  0  0  0  0  0  0  0  0  0  0  0
   -6.9680   -1.0109  -18.9130 C   0  0  0  0  0  0  0  0  0  0  0  0
   -6.2654   -0.5717  -17.8400 N   0  0  0  0  0  0  0  0  0  0  0  0
   -5.2423    0.2171  -18.0701 C   0  0  0  0  0  0  0  0  0  0  0  0
   -4.8358    0.6299  -19.3734 C   0  0  0  0  0  0  0  0  0  0  0  0
   -3.6928    1.4430  -19.5813 C   0  0  0  0  0  0  0  0  0  0  0  0
   -3.3474    1.8444  -20.8432 C   0  0  0  0  0  0  0  0  0  0  0  0
   -4.1477    1.4887  -21.9527 C   0  0  0  0  0  0  0  0  0  0  0  0
   -5.2609    0.7062  -21.7776 C   0  0  0  0  0  0  0  0  0  0  0  0
   -5.6068    0.2254  -20.4824 C   0  0  0  0  0  0  0  0  0  0  0  0
   -5.9014    0.4748  -22.6228 H   0  0  0  0  0  0  0  0  0  0  0  0
   -3.8808    1.8409  -22.9470 H   0  0  0  0  0  0  0  0  0  0  0  0
   -2.4742    2.4706  -21.0020 H   0  0  0  0  0  0  0  0  0  0  0  0
   -3.1287    1.7571  -18.7084 H   0  0  0  0  0  0  0  0  0  0  0  0
   -4.6781    0.5720  -17.2038 H   0  0  0  0  0  0  0  0  0  0  0  0
   -7.8150   -1.6644  -18.7092 H   0  0  0  0  0  0  0  0  0  0  0  0
   -7.6117   -2.5354  -21.5261 C   0  0  0  0  0  0  0  0  0  0  0  0
   -6.8566   -3.3973  -21.1553 O   0  0  0  0  0  0  0  0  0  0  0  0
   -8.8310   -2.6663  -22.4150 C   0  0  0  0  0  0  0  0  0  0  0  0
   -9.9973   -3.5442  -21.8840 C   0  0  0  0  0  0  0  0  0  0  0  0
   -9.8852   -4.4209  -23.0797 N   0  0  0  0  0  0  0  0  0  0  0  0
  -11.1779   -4.3969  -24.1735 S   0  0  0  0  0  0  0  0  0  0  0  0
  -11.1820   -3.1320  -24.8971 O   0  0  0  0  0  0  0  0  0  0  0  0
  -12.3685   -4.8041  -23.4575 O   0  0  0  0  0  0  0  0  0  0  0  0
  -10.6052   -5.6644  -25.2779 C   0  0  0  0  0  0  0  0  0  0  0  0
  -10.9607   -5.5855  -26.6178 C   0  0  0  0  0  0  0  0  0  0  0  0
  -10.5506   -6.5854  -27.4911 C   0  0  0  0  0  0  0  0  0  0  0  0
   -9.7456   -7.6199  -27.0261 C   0  0  0  0  0  0  0  0  0  0  0  0
   -9.3411   -7.6463  -25.6978 C   0  0  0  0  0  0  0  0  0  0  0  0
   -9.7882   -6.6858  -24.8029 C   0  0  0  0  0  0  0  0  0  0  0  0
   -9.4910   -6.7174  -23.7567 H   0  0  0  0  0  0  0  0  0  0  0  0
   -8.6658   -8.4230  -25.3680 H   0  0  0  0  0  0  0  0  0  0  0  0
   -9.4208   -8.4164  -27.6888 H   0  0  0  0  0  0  0  0  0  0  0  0
  -10.8688   -6.5489  -28.5270 H   0  0  0  0  0  0  0  0  0  0  0  0
  -11.5293   -4.7338  -26.9585 H   0  0  0  0  0  0  0  0  0  0  0  0
   -8.6629   -3.7162  -23.5243 C   0  0  0  0  0  0  0  0  0  0  0  0
   -8.6402   -3.3699  -24.5587 H   0  0  0  0  0  0  0  0  0  0  0  0
   -7.8028   -4.3507  -23.3126 H   0  0  0  0  0  0  0  0  0  0  0  0
   -9.7373   -4.0942  -20.9792 H   0  0  0  0  0  0  0  0  0  0  0  0
  -10.9576   -3.0449  -21.7571 H   0  0  0  0  0  0  0  0  0  0  0  0
  -11.1277   -1.0174  -23.2715 H   0  0  0  0  0  0  0  0  0  0  0  0
   -9.9892   -1.2659  -24.6272 H   0  0  0  0  0  0  0  0  0  0  0  0
  -10.0008    0.2747  -23.7211 H   0  0  0  0  0  0  0  0  0  0  0  0
  1  2  1  0
  2  3  1  0
  3  4  2  0
  3  5  1  0
  5  6  1  0
  6  7  2  0
  7  8  1  0
  8  9  2  0
  9 10  1  0
 10 11  2  0
 11 12  1  0
 12 13  2  0
 13 14  1  0
 14 15  2  0
 14 16  1  0
 13 17  1  0
 12 18  1  0
 11 19  1  0
  9 20  1  0
  7 21  1  0
  5 22  1  0
 22 23  2  0
 22 24  1  0
 24 25  1  0
 25 26  1  0
 26 27  1  0
 27 28  2  0
 27 29  2  0
 27 30  1  0
 30 31  2  0
 31 32  1  0
 32 33  2  0
 33 34  1  0
 34 35  2  0
 35 36  1  0
 34 37  1  0
 33 38  1  0
 32 39  1  0
 31 40  1  0
 26 41  1  0
 41 42  1  0
 41 43  1  0
 25 44  1  0
 25 45  1  0
  1 46  1  0
  1 47  1  0
  1 48  1  0
 24  2  1  0
 35 30  1  0
 15  6  1  0
 41 24  1  0
 15 10  1  0
M  END
>  <cnnaffinities>  (12) 
[5.72281, 5.19357, 5.14345, 5.14889, 5.15377, 5.19173]

>  <score>  (12) 
5.72281

>  <index>  (12) 
11

>  <Smiles>  (12) 
C(N1C(=O)N(c2c(nc(c3c(c(c(c(c23)[H])[H])[H])[H])[H])[H])C(=O)C21C(N(S(=O)(=O)c1c(c(c(c(c1[H])[H])[H])[H])[H])C2([H])[H])([H])[H])([H])([H])[H]

>  <h>  (12) 
<NA>

>  <Training>  (12) 
True

>  <Success>  (12) 
True

>  <enamine_searched>  (12) 
False

>  <enamine_id>  (12) 
nan

$$$$

     RDKit          3D

 76 82  0  0  0  0  0  0  0  0999 V2000
  -11.3953    1.5234  -24.1555 O   0  0  0  0  0  0  0  0  0  0  0  0
  -10.7400    0.5149  -23.9285 C   0  0  0  0  0  0  0  0  0  0  0  0
  -11.3631   -0.7007  -23.2924 C   0  0  0  0  0  0  0  0  0  0  0  0
  -12.7524   -0.7231  -23.1878 C   0  0  0  0  0  0  0  0  0  0  0  0
  -13.3864   -1.7017  -22.4464 C   0  0  0  0  0  0  0  0  0  0  0  0
  -12.6050   -2.6891  -21.8485 C   0  0  0  0  0  0  0  0  0  0  0  0
  -13.3322   -3.8201  -20.7398 Cl  0  0  0  0  0  0  0  0  0  0  0  0
  -11.2391   -2.7605  -22.0561 C   0  0  0  0  0  0  0  0  0  0  0  0
  -10.5870   -1.7520  -22.7781 C   0  0  0  0  0  0  0  0  0  0  0  0
   -9.0799   -1.6502  -22.8393 C   0  0  1  0  0  0  0  0  0  0  0  0
   -8.7309   -0.8592  -24.1346 C   0  0  0  0  0  0  0  0  0  0  0  0
   -9.4094    0.4225  -24.2065 N   0  0  0  0  0  0  0  0  0  0  0  0
   -8.6745    1.6349  -24.5200 C   0  0  0  0  0  0  0  0  0  0  0  0
   -8.1164    2.2594  -23.2495 C   0  0  0  0  0  0  0  0  0  0  0  0
   -7.2502    3.4258  -23.4945 N   0  0  0  0  0  4  0  0  0  0  0  0
   -6.0682    3.1378  -24.3982 C   0  0  0  0  0  0  0  0  0  0  0  0
   -5.0505    4.2721  -24.2397 C   0  0  0  0  0  0  0  0  0  0  0  0
   -5.7384    5.4515  -23.8755 O   0  0  0  0  0  0  0  0  0  0  0  0
   -6.1193    5.3897  -22.5127 C   0  0  0  0  0  0  0  0  0  0  0  0
   -6.8129    4.0528  -22.2042 C   0  0  0  0  0  0  0  0  0  0  0  0
   -7.6935    4.1957  -21.5721 H   0  0  0  0  0  0  0  0  0  0  0  0
   -6.1368    3.3575  -21.6918 H   0  0  0  0  0  0  0  0  0  0  0  0
   -5.2418    5.5181  -21.8596 H   0  0  0  0  0  0  0  0  0  0  0  0
   -6.7922    6.2351  -22.3518 H   0  0  0  0  0  0  0  0  0  0  0  0
   -4.2936    4.0214  -23.4782 H   0  0  0  0  0  0  0  0  0  0  0  0
   -4.5362    4.4707  -25.1839 H   0  0  0  0  0  0  0  0  0  0  0  0
   -6.4253    3.1015  -25.4302 H   0  0  0  0  0  0  0  0  0  0  0  0
   -5.6449    2.1643  -24.1381 H   0  0  0  0  0  0  0  0  0  0  0  0
   -7.8108    4.1490  -23.9808 H   0  0  0  0  0  0  0  0  0  0  0  0
   -7.5411    1.5101  -22.7014 H   0  0  0  0  0  0  0  0  0  0  0  0
   -8.9448    2.5580  -22.5977 H   0  0  0  0  0  0  0  0  0  0  0  0
   -9.3596    2.3316  -25.0050 H   0  0  0  0  0  0  0  0  0  0  0  0
   -7.8702    1.3937  -25.2257 H   0  0  0  0  0  0  0  0  0  0  0  0
   -9.0392   -1.4668  -24.9938 H   0  0  0  0  0  0  0  0  0  0  0  0
   -7.6537   -0.6808  -24.1876 H   0  0  0  0  0  0  0  0  0  0  0  0
   -8.5934   -0.8944  -21.5880 C   0  0  0  0  0  0  0  0  0  0  0  0
   -9.1604    0.0143  -21.0117 O   0  0  0  0  0  0  0  0  0  0  0  0
   -7.3762   -1.4103  -21.2117 N   0  0  0  0  0  0  0  0  0  0  0  0
   -6.6215   -0.7934  -20.1862 C   0  0  0  0  0  0  0  0  0  0  0  0
   -6.9385   -1.0470  -18.8762 C   0  0  0  0  0  0  0  0  0  0  0  0
   -6.2481   -0.5645  -17.8145 N   0  0  0  0  0  0  0  0  0  0  0  0
   -5.2139    0.2012  -18.0706 C   0  0  0  0  0  0  0  0  0  0  0  0
   -4.7878    0.5641  -19.3815 C   0  0  0  0  0  0  0  0  0  0  0  0
   -3.6636    1.4047  -19.5938 C   0  0  0  0  0  0  0  0  0  0  0  0
   -3.3147    1.7947  -20.8587 C   0  0  0  0  0  0  0  0  0  0  0  0
   -4.0908    1.3852  -21.9634 C   0  0  0  0  0  0  0  0  0  0  0  0
   -5.1702    0.5490  -21.7858 C   0  0  0  0  0  0  0  0  0  0  0  0
   -5.5326    0.0881  -20.4869 C   0  0  0  0  0  0  0  0  0  0  0  0
   -5.7423    0.2164  -22.6488 H   0  0  0  0  0  0  0  0  0  0  0  0
   -3.8025    1.7117  -22.9616 H   0  0  0  0  0  0  0  0  0  0  0  0
   -2.4401    2.4204  -21.0156 H   0  0  0  0  0  0  0  0  0  0  0  0
   -3.1120    1.7452  -18.7224 H   0  0  0  0  0  0  0  0  0  0  0  0
   -4.6589    0.5903  -17.2170 H   0  0  0  0  0  0  0  0  0  0  0  0
   -7.7864   -1.6879  -18.6476 H   0  0  0  0  0  0  0  0  0  0  0  0
   -6.9491   -2.5504  -22.0028 C   0  0  0  0  0  0  0  0  0  0  0  0
   -8.2629   -2.9627  -22.6831 C   0  0  2  0  0  0  0  0  0  0  0  0
   -8.0945   -3.8685  -23.9029 C   0  0  0  0  0  0  0  0  0  0  0  0
   -7.1404   -3.3717  -24.8832 N   0  0  0  0  0  0  0  0  0  0  0  0
   -7.3816   -3.3360  -26.2237 C   0  0  0  0  0  0  0  0  0  0  0  0
   -6.3364   -3.0045  -27.0122 N   0  0  0  0  0  0  0  0  0  0  0  0
   -6.6285   -2.8384  -28.2937 C   0  0  0  0  0  0  0  0  0  0  0  0
   -7.8999   -3.0358  -28.8131 C   0  0  0  0  0  0  0  0  0  0  0  0
   -8.8695   -3.4540  -27.9257 C   0  0  0  0  0  0  0  0  0  0  0  0
   -8.6310   -3.5933  -26.6227 N   0  0  0  0  0  0  0  0  0  0  0  0
   -9.8794   -3.6815  -28.2590 H   0  0  0  0  0  0  0  0  0  0  0  0
   -8.1166   -2.8541  -29.8502 H   0  0  0  0  0  0  0  0  0  0  0  0
   -5.8066   -2.5261  -28.9370 H   0  0  0  0  0  0  0  0  0  0  0  0
   -6.1617   -3.3651  -24.6537 H   0  0  0  0  0  0  0  0  0  0  0  0
   -7.7765   -4.8649  -23.5715 H   0  0  0  0  0  0  0  0  0  0  0  0
   -9.0530   -3.9734  -24.4133 H   0  0  0  0  0  0  0  0  0  0  0  0
   -8.7959   -3.5410  -21.9237 H   0  0  0  0  0  0  0  0  0  0  0  0
   -6.1706   -2.2595  -22.7199 H   0  0  0  0  0  0  0  0  0  0  0  0
   -6.5350   -3.3437  -21.3682 H   0  0  0  0  0  0  0  0  0  0  0  0
  -10.7230   -3.6143  -21.6324 H   0  0  0  0  0  0  0  0  0  0  0  0
  -14.4644   -1.7150  -22.3183 H   0  0  0  0  0  0  0  0  0  0  0  0
  -13.3211    0.0492  -23.6936 H   0  0  0  0  0  0  0  0  0  0  0  0
  1  2  2  0
  2  3  1  0
  3  4  2  0
  4  5  1  0
  5  6  2  0
  6  7  1  0
  6  8  1  0
  8  9  2  0
  9 10  1  0
 10 11  1  6
 11 12  1  0
 12 13  1  0
 13 14  1  0
 14 15  1  0
 15 16  1  0
 16 17  1  0
 17 18  1  0
 18 19  1  0
 19 20  1  0
 20 21  1  0
 20 22  1  0
 19 23  1  0
 19 24  1  0
 17 25  1  0
 17 26  1  0
 16 27  1  0
 16 28  1  0
 15 29  1  0
 14 30  1  0
 14 31  1  0
 13 32  1  0
 13 33  1  0
 11 34  1  0
 11 35  1  0
 10 36  1  0
 36 37  2  0
 36 38  1  0
 38 39  1  0
 39 40  2  0
 40 41  1  0
 41 42  2  0
 42 43  1  0
 43 44  2  0
 44 45  1  0
 45 46  2  0
 46 47  1  0
 47 48  2  0
 47 49  1  0
 46 50  1  0
 45 51  1  0
 44 52  1  0
 42 53  1  0
 40 54  1  0
 38 55  1  0
 55 56  1  0
 56 57  1  0
 57 58  1  0
 58 59  1  0
 59 60  2  0
 60 61  1  0
 61 62  2  0
 62 63  1  0
 63 64  2  0
 63 65  1  0
 62 66  1  0
 61 67  1  0
 58 68  1  0
 57 69  1  0
 57 70  1  0
 56 71  1  1
 55 72  1  0
 55 73  1  0
  8 74  1  0
  5 75  1  0
  4 76  1  0
 12  2  1  0
 20 15  1  0
 48 39  1  0
 64 59  1  0
  9  3  1  0
 56 10  1  0
 48 43  1  0
M  CHG  1  15   1
M  END
>  <cnnaffinities>  (13) 
[6.2444, 5.63688, 5.50528]

>  <score>  (13) 
6.2444

>  <index>  (13) 
12

>  <Smiles>  (13) 
O=C1c2c(c(c(Cl)c(c2[C@@]2(C(N1C(C([N+]1(C(C(OC(C1([H])[H])([H])[H])([H])[H])([H])[H])[H])([H])[H])([H])[H])([H])[H])C(=O)N(c1c(nc(c3c(c(c(c(c13)[H])[H])[H])[H])[H])[H])C([C@@]2(C(N(c1nc(c(c(n1)[H])[H])[H])[H])([H])[H])[H])([H])[H])[H])[H])[H]

>  <h>  (13) 
<NA>

>  <Training>  (13) 
True

>  <Success>  (13) 
True

>  <enamine_searched>  (13) 
False

>  <enamine_id>  (13) 
nan

$$$$

     RDKit          3D

 69 74  0  0  0  0  0  0  0  0999 V2000
   -7.4536    3.4248  -21.9241 C   0  0  0  0  0  0  0  0  0  0  0  0
   -8.4987    2.9421  -22.8182 N   0  0  0  0  0  0  0  0  0  0  0  0
   -8.0768    2.1458  -23.8513 C   0  0  0  0  0  0  0  0  0  0  0  0
   -6.8997    1.8854  -24.0345 O   0  0  0  0  0  0  0  0  0  0  0  0
   -9.1529    1.5619  -24.7657 C   0  0  0  0  0  0  0  0  0  0  0  0
   -9.7379    0.3965  -24.1340 N   0  0  0  0  0  0  0  0  0  0  0  0
   -8.9477   -0.8250  -24.0633 C   0  0  0  0  0  0  0  0  0  0  0  0
   -9.2240   -1.6030  -22.7532 C   0  0  2  0  0  0  0  0  0  0  0  0
   -8.6427   -0.8073  -21.5597 C   0  0  0  0  0  0  0  0  0  0  0  0
   -9.1216    0.1784  -21.0304 O   0  0  0  0  0  0  0  0  0  0  0  0
   -7.4422   -1.3769  -21.2001 N   0  0  0  0  0  0  0  0  0  0  0  0
   -6.6451   -0.7923  -20.1815 C   0  0  0  0  0  0  0  0  0  0  0  0
   -6.9394   -1.0508  -18.8657 C   0  0  0  0  0  0  0  0  0  0  0  0
   -6.2346   -0.5772  -17.8104 N   0  0  0  0  0  0  0  0  0  0  0  0
   -5.2068    0.1949  -18.0718 C   0  0  0  0  0  0  0  0  0  0  0  0
   -4.8055    0.5670  -19.3866 C   0  0  0  0  0  0  0  0  0  0  0  0
   -3.6753    1.3955  -19.6141 C   0  0  0  0  0  0  0  0  0  0  0  0
   -3.3342    1.7684  -20.8857 C   0  0  0  0  0  0  0  0  0  0  0  0
   -4.1169    1.3514  -21.9850 C   0  0  0  0  0  0  0  0  0  0  0  0
   -5.2010    0.5225  -21.7947 C   0  0  0  0  0  0  0  0  0  0  0  0
   -5.5591    0.0888  -20.4869 C   0  0  0  0  0  0  0  0  0  0  0  0
   -5.7950    0.2240  -22.6536 H   0  0  0  0  0  0  0  0  0  0  0  0
   -3.8566    1.6797  -22.9879 H   0  0  0  0  0  0  0  0  0  0  0  0
   -2.4585    2.3886  -21.0533 H   0  0  0  0  0  0  0  0  0  0  0  0
   -3.0998    1.7246  -18.7529 H   0  0  0  0  0  0  0  0  0  0  0  0
   -4.6253    0.5632  -17.2252 H   0  0  0  0  0  0  0  0  0  0  0  0
   -7.7921   -1.6819  -18.6293 H   0  0  0  0  0  0  0  0  0  0  0  0
   -7.0912   -2.5506  -21.9832 C   0  0  0  0  0  0  0  0  0  0  0  0
   -8.4062   -2.9265  -22.6862 C   0  0  2  0  0  0  0  0  0  0  0  0
   -8.1635   -3.6815  -23.9980 C   0  0  0  0  0  0  0  0  0  0  0  0
   -9.4013   -4.0923  -24.6193 N   0  0  0  0  0  0  0  0  0  0  0  0
   -9.4278   -4.7450  -25.8136 C   0  0  0  0  0  0  0  0  0  0  0  0
  -10.6462   -5.1829  -26.3705 C   0  0  0  0  0  0  0  0  0  0  0  0
  -10.5791   -5.7827  -27.6078 C   0  0  0  0  0  0  0  0  0  0  0  0
   -9.4276   -5.9765  -28.2687 N   0  0  0  0  0  0  0  0  0  0  0  0
   -8.3269   -5.5577  -27.6447 C   0  0  0  0  0  0  0  0  0  0  0  0
   -7.0275   -5.8171  -28.3645 C   0  0  0  0  0  0  0  0  0  0  0  0
   -7.2093   -5.7693  -29.4443 H   0  0  0  0  0  0  0  0  0  0  0  0
   -6.6717   -6.8312  -28.1320 H   0  0  0  0  0  0  0  0  0  0  0  0
   -6.2557   -5.0961  -28.0728 H   0  0  0  0  0  0  0  0  0  0  0  0
   -8.2619   -4.9487  -26.4493 N   0  0  0  0  0  0  0  0  0  0  0  0
  -11.4805   -6.1305  -28.1158 H   0  0  0  0  0  0  0  0  0  0  0  0
  -11.5907   -5.0595  -25.8452 H   0  0  0  0  0  0  0  0  0  0  0  0
  -10.2770   -3.9591  -24.1276 H   0  0  0  0  0  0  0  0  0  0  0  0
   -7.5474   -4.5689  -23.8026 H   0  0  0  0  0  0  0  0  0  0  0  0
   -7.6013   -3.0617  -24.7129 H   0  0  0  0  0  0  0  0  0  0  0  0
   -8.9465   -3.6086  -22.0209 H   0  0  0  0  0  0  0  0  0  0  0  0
   -6.3012   -2.3280  -22.7176 H   0  0  0  0  0  0  0  0  0  0  0  0
   -6.7333   -3.3631  -21.3431 H   0  0  0  0  0  0  0  0  0  0  0  0
  -10.7285   -1.7512  -22.6075 C   0  0  0  0  0  0  0  0  0  0  0  0
  -11.2961   -2.7630  -21.8254 C   0  0  0  0  0  0  0  0  0  0  0  0
  -12.6600   -2.7814  -21.5954 C   0  0  0  0  0  0  0  0  0  0  0  0
  -13.3190   -3.9604  -20.5087 Cl  0  0  0  0  0  0  0  0  0  0  0  0
  -13.5197   -1.8403  -22.1533 C   0  0  0  0  0  0  0  0  0  0  0  0
  -12.9731   -0.8478  -22.9348 C   0  0  0  0  0  0  0  0  0  0  0  0
  -11.5983   -0.7894  -23.1441 C   0  0  0  0  0  0  0  0  0  0  0  0
  -11.0843    0.3855  -23.9087 C   0  0  0  0  0  0  0  0  0  0  0  0
  -11.8229    1.2903  -24.2849 O   0  0  0  0  0  0  0  0  0  0  0  0
  -13.5814   -0.0721  -23.3828 H   0  0  0  0  0  0  0  0  0  0  0  0
  -14.5827   -1.8809  -21.9492 H   0  0  0  0  0  0  0  0  0  0  0  0
  -10.7025   -3.5273  -21.3367 H   0  0  0  0  0  0  0  0  0  0  0  0
   -7.8867   -0.5609  -24.1348 H   0  0  0  0  0  0  0  0  0  0  0  0
   -9.1895   -1.4755  -24.9143 H   0  0  0  0  0  0  0  0  0  0  0  0
   -8.6938    1.2720  -25.7220 H   0  0  0  0  0  0  0  0  0  0  0  0
   -9.9632    2.2697  -24.9634 H   0  0  0  0  0  0  0  0  0  0  0  0
   -9.4040    2.7360  -22.4093 H   0  0  0  0  0  0  0  0  0  0  0  0
   -6.9972    2.5761  -21.3874 H   0  0  0  0  0  0  0  0  0  0  0  0
   -6.6893    3.9088  -22.5380 H   0  0  0  0  0  0  0  0  0  0  0  0
   -7.8556    4.1693  -21.2271 H   0  0  0  0  0  0  0  0  0  0  0  0
  1  2  1  0
  2  3  1  0
  3  4  2  0
  3  5  1  0
  5  6  1  0
  6  7  1  0
  8  7  1  6
  8  9  1  0
  9 10  2  0
  9 11  1  0
 11 12  1  0
 12 13  2  0
 13 14  1  0
 14 15  2  0
 15 16  1  0
 16 17  2  0
 17 18  1  0
 18 19  2  0
 19 20  1  0
 20 21  2  0
 20 22  1  0
 19 23  1  0
 18 24  1  0
 17 25  1  0
 15 26  1  0
 13 27  1  0
 11 28  1  0
 28 29  1  0
 29 30  1  0
 30 31  1  0
 31 32  1  0
 32 33  2  0
 33 34  1  0
 34 35  2  0
 35 36  1  0
 36 37  1  0
 37 38  1  0
 37 39  1  0
 37 40  1  0
 36 41  2  0
 34 42  1  0
 33 43  1  0
 31 44  1  0
 30 45  1  0
 30 46  1  0
 29 47  1  1
 28 48  1  0
 28 49  1  0
  8 50  1  0
 50 51  2  0
 51 52  1  0
 52 53  1  0
 52 54  2  0
 54 55  1  0
 55 56  2  0
 56 57  1  0
 57 58  2  0
 55 59  1  0
 54 60  1  0
 51 61  1  0
  7 62  1  0
  7 63  1  0
  5 64  1  0
  5 65  1  0
  2 66  1  0
  1 67  1  0
  1 68  1  0
  1 69  1  0
 57  6  1  0
 29  8  1  0
 41 32  1  0
 56 50  1  0
 21 12  1  0
 21 16  1  0
M  END
>  <cnnaffinities>  (14) 
[6.04507]

>  <score>  (14) 
6.04507

>  <index>  (14) 
13

>  <Smiles>  (14) 
C(N(C(=O)C(N1C([C@@]2(C(=O)N(c3c(nc(c4c(c(c(c(c34)[H])[H])[H])[H])[H])[H])C([C@@]2(C(N(c2c(c(nc(C([H])([H])[H])n2)[H])[H])[H])([H])[H])[H])([H])[H])c2c(c(Cl)c(c(c2C1=O)[H])[H])[H])([H])[H])([H])[H])[H])([H])([H])[H]

>  <h>  (14) 
<NA>

>  <Training>  (14) 
True

>  <Success>  (14) 
True

>  <enamine_searched>  (14) 
False

>  <enamine_id>  (14) 
nan

$$$$

     RDKit          3D

 73 78  0  0  0  0  0  0  0  0999 V2000
   -7.9572   -3.7300  -23.9842 C   0  0  0  0  0  0  0  0  0  0  0  0
   -8.2635   -2.8333  -22.7891 C   0  0  1  0  0  0  0  0  0  0  0  0
   -7.0550   -2.6306  -21.8615 C   0  0  0  0  0  0  0  0  0  0  0  0
   -7.3719   -1.3845  -21.1942 N   0  0  0  0  0  0  0  0  0  0  0  0
   -6.5983   -0.7906  -20.1722 C   0  0  0  0  0  0  0  0  0  0  0  0
   -6.9064   -1.0540  -18.8643 C   0  0  0  0  0  0  0  0  0  0  0  0
   -6.2170   -0.5663  -17.8063 N   0  0  0  0  0  0  0  0  0  0  0  0
   -5.2012    0.2215  -18.0716 C   0  0  0  0  0  0  0  0  0  0  0  0
   -4.7966    0.5963  -19.3862 C   0  0  0  0  0  0  0  0  0  0  0  0
   -3.6630    1.4175  -19.6129 C   0  0  0  0  0  0  0  0  0  0  0  0
   -3.3027    1.7757  -20.8831 C   0  0  0  0  0  0  0  0  0  0  0  0
   -4.0758    1.3551  -21.9865 C   0  0  0  0  0  0  0  0  0  0  0  0
   -5.1622    0.5324  -21.7948 C   0  0  0  0  0  0  0  0  0  0  0  0
   -5.5349    0.1080  -20.4843 C   0  0  0  0  0  0  0  0  0  0  0  0
   -5.7262    0.1889  -22.6584 H   0  0  0  0  0  0  0  0  0  0  0  0
   -3.8132    1.6912  -22.9880 H   0  0  0  0  0  0  0  0  0  0  0  0
   -2.4254    2.3928  -21.0444 H   0  0  0  0  0  0  0  0  0  0  0  0
   -3.0966    1.7504  -18.7502 H   0  0  0  0  0  0  0  0  0  0  0  0
   -4.6229    0.5903  -17.2258 H   0  0  0  0  0  0  0  0  0  0  0  0
   -7.7600   -1.6925  -18.6435 H   0  0  0  0  0  0  0  0  0  0  0  0
   -8.3522   -0.6501  -21.8154 C   0  0  0  0  0  0  0  0  0  0  0  0
   -8.7884    0.3955  -21.3764 O   0  0  0  0  0  0  0  0  0  0  0  0
   -8.7816   -1.4006  -23.0948 C   0  0  1  0  0  0  0  0  0  0  0  0
   -8.0831   -0.8188  -24.3544 C   0  0  0  0  0  0  0  0  0  0  0  0
   -8.5641    0.5098  -24.6736 N   0  0  0  0  0  0  0  0  0  0  0  0
   -7.6397    1.6018  -24.9123 C   0  0  0  0  0  0  0  0  0  0  0  0
   -7.5439    2.5140  -23.6906 C   0  0  0  0  0  0  0  0  0  0  0  0
   -6.4547    3.5311  -23.8387 N   0  0  0  0  0  4  0  0  0  0  0  0
   -6.7739    4.6432  -24.8219 C   0  0  0  0  0  0  0  0  0  0  0  0
   -7.7489    5.6718  -24.2377 C   0  0  0  0  0  0  0  0  0  0  0  0
   -7.3082    6.1827  -22.9400 N   0  0  0  0  0  0  0  0  0  0  0  0
   -6.5552    7.6617  -22.8417 S   0  0  0  0  0  0  0  0  0  0  0  0
   -6.0831    7.8336  -21.4789 O   0  0  0  0  0  0  0  0  0  0  0  0
   -7.4358    8.6371  -23.4619 O   0  0  0  0  0  0  0  0  0  0  0  0
   -5.1250    7.5277  -23.9085 C   0  0  0  0  0  0  0  0  0  0  0  0
   -5.4527    7.4717  -24.9482 H   0  0  0  0  0  0  0  0  0  0  0  0
   -4.5071    6.6630  -23.6636 H   0  0  0  0  0  0  0  0  0  0  0  0
   -4.5395    8.4380  -23.7728 H   0  0  0  0  0  0  0  0  0  0  0  0
   -7.0243    5.1240  -21.9731 C   0  0  0  0  0  0  0  0  0  0  0  0
   -6.0137    4.1232  -22.5239 C   0  0  0  0  0  0  0  0  0  0  0  0
   -5.0523    4.6093  -22.6946 H   0  0  0  0  0  0  0  0  0  0  0  0
   -5.8515    3.3160  -21.8080 H   0  0  0  0  0  0  0  0  0  0  0  0
   -7.9698    4.6059  -21.7702 H   0  0  0  0  0  0  0  0  0  0  0  0
   -6.6791    5.5695  -21.0410 H   0  0  0  0  0  0  0  0  0  0  0  0
   -8.7226    5.1945  -24.0861 H   0  0  0  0  0  0  0  0  0  0  0  0
   -7.9114    6.5014  -24.9264 H   0  0  0  0  0  0  0  0  0  0  0  0
   -7.1781    4.2137  -25.7401 H   0  0  0  0  0  0  0  0  0  0  0  0
   -5.8294    5.1182  -25.0881 H   0  0  0  0  0  0  0  0  0  0  0  0
   -5.6337    3.0160  -24.2072 H   0  0  0  0  0  0  0  0  0  0  0  0
   -7.3507    1.9291  -22.7883 H   0  0  0  0  0  0  0  0  0  0  0  0
   -8.5060    3.0039  -23.5440 H   0  0  0  0  0  0  0  0  0  0  0  0
   -6.6515    1.1896  -25.1431 H   0  0  0  0  0  0  0  0  0  0  0  0
   -7.9788    2.1578  -25.7914 H   0  0  0  0  0  0  0  0  0  0  0  0
   -9.9007    0.7831  -24.7186 C   0  0  0  0  0  0  0  0  0  0  0  0
  -10.3486    1.7953  -25.2483 O   0  0  0  0  0  0  0  0  0  0  0  0
  -10.7954   -0.2081  -24.0393 C   0  0  0  0  0  0  0  0  0  0  0  0
  -12.1673   -0.0121  -24.1400 C   0  0  0  0  0  0  0  0  0  0  0  0
  -13.0239   -0.7348  -23.3423 C   0  0  0  0  0  0  0  0  0  0  0  0
  -12.4959   -1.6947  -22.4839 C   0  0  0  0  0  0  0  0  0  0  0  0
  -13.5479   -2.4681  -21.3373 Cl  0  0  0  0  0  0  0  0  0  0  0  0
  -11.1536   -2.0042  -22.4832 C   0  0  0  0  0  0  0  0  0  0  0  0
  -10.2736   -1.2459  -23.2577 C   0  0  0  0  0  0  0  0  0  0  0  0
  -10.8100   -2.8293  -21.8695 H   0  0  0  0  0  0  0  0  0  0  0  0
  -14.0902   -0.5702  -23.3335 H   0  0  0  0  0  0  0  0  0  0  0  0
  -12.5336    0.7477  -24.8154 H   0  0  0  0  0  0  0  0  0  0  0  0
   -8.2931   -1.4906  -25.2001 H   0  0  0  0  0  0  0  0  0  0  0  0
   -6.9920   -0.7820  -24.2185 H   0  0  0  0  0  0  0  0  0  0  0  0
   -6.1176   -2.5747  -22.4393 H   0  0  0  0  0  0  0  0  0  0  0  0
   -6.9531   -3.4456  -21.1393 H   0  0  0  0  0  0  0  0  0  0  0  0
   -9.0317   -3.3273  -22.1917 H   0  0  0  0  0  0  0  0  0  0  0  0
   -7.1186   -3.3363  -24.5706 H   0  0  0  0  0  0  0  0  0  0  0  0
   -7.6815   -4.7362  -23.6485 H   0  0  0  0  0  0  0  0  0  0  0  0
   -8.8189   -3.8228  -24.6549 H   0  0  0  0  0  0  0  0  0  0  0  0
  1  2  1  0
  2  3  1  0
  3  4  1  0
  4  5  1  0
  5  6  2  0
  6  7  1  0
  7  8  2  0
  8  9  1  0
  9 10  2  0
 10 11  1  0
 11 12  2  0
 12 13  1  0
 13 14  2  0
 13 15  1  0
 12 16  1  0
 11 17  1  0
 10 18  1  0
  8 19  1  0
  6 20  1  0
  4 21  1  0
 21 22  2  0
 21 23  1  0
 23 24  1  6
 24 25  1  0
 25 26  1  0
 26 27  1  0
 27 28  1  0
 28 29  1  0
 29 30  1  0
 30 31  1  0
 31 32  1  0
 32 33  2  0
 32 34  2  0
 32 35  1  0
 35 36  1  0
 35 37  1  0
 35 38  1  0
 31 39  1  0
 39 40  1  0
 40 41  1  0
 40 42  1  0
 39 43  1  0
 39 44  1  0
 30 45  1  0
 30 46  1  0
 29 47  1  0
 29 48  1  0
 28 49  1  0
 27 50  1  0
 27 51  1  0
 26 52  1  0
 26 53  1  0
 25 54  1  0
 54 55  2  0
 54 56  1  0
 56 57  2  0
 57 58  1  0
 58 59  2  0
 59 60  1  0
 59 61  1  0
 61 62  2  0
 61 63  1  0
 58 64  1  0
 57 65  1  0
 24 66  1  0
 24 67  1  0
  3 68  1  0
  3 69  1  0
  2 70  1  1
  1 71  1  0
  1 72  1  0
  1 73  1  0
 23  2  1  0
 40 28  1  0
 62 56  1  0
 14  5  1  0
 62 23  1  0
 14  9  1  0
M  CHG  1  28   1
M  END
>  <cnnaffinities>  (15) 
[5.40972]

>  <score>  (15) 
5.40972

>  <index>  (15) 
14

>  <Smiles>  (15) 
C([C@]1(C(N(c2c(nc(c3c(c(c(c(c23)[H])[H])[H])[H])[H])[H])C(=O)[C@]21C(N(C(C([N+]1(C(C(N(S(=O)(=O)C([H])([H])[H])C(C1([H])[H])([H])[H])([H])[H])([H])[H])[H])([H])[H])([H])[H])C(=O)c1c(c(c(Cl)c(c21)[H])[H])[H])([H])[H])([H])[H])[H])([H])([H])[H]

>  <h>  (15) 
<NA>

>  <Training>  (15) 
True

>  <Success>  (15) 
True

>  <enamine_searched>  (15) 
False

>  <enamine_id>  (15) 
nan

$$$$

     RDKit          3D

 63 68  0  0  0  0  0  0  0  0999 V2000
   -7.4227    3.4123  -21.9063 C   0  0  0  0  0  0  0  0  0  0  0  0
   -8.3858    2.9176  -22.8775 N   0  0  0  0  0  0  0  0  0  0  0  0
   -7.8776    2.1782  -23.9091 C   0  0  0  0  0  0  0  0  0  0  0  0
   -6.6773    2.0008  -24.0577 O   0  0  0  0  0  0  0  0  0  0  0  0
   -8.8868    1.5694  -24.8809 C   0  0  0  0  0  0  0  0  0  0  0  0
   -9.5097    0.4051  -24.2798 N   0  0  0  0  0  0  0  0  0  0  0  0
   -8.7325   -0.8207  -24.1410 C   0  0  0  0  0  0  0  0  0  0  0  0
   -9.0828   -1.5684  -22.8279 C   0  0  2  0  0  0  0  0  0  0  0  0
   -8.5528   -0.7763  -21.6132 C   0  0  0  0  0  0  0  0  0  0  0  0
   -9.0426    0.2100  -21.1014 O   0  0  0  0  0  0  0  0  0  0  0  0
   -7.3835   -1.3686  -21.1965 N   0  0  0  0  0  0  0  0  0  0  0  0
   -6.6109   -0.7862  -20.1685 C   0  0  0  0  0  0  0  0  0  0  0  0
   -6.9197   -1.0469  -18.8588 C   0  0  0  0  0  0  0  0  0  0  0  0
   -6.2254   -0.5667  -17.8007 N   0  0  0  0  0  0  0  0  0  0  0  0
   -5.1976    0.2077  -18.0591 C   0  0  0  0  0  0  0  0  0  0  0  0
   -4.7829    0.5750  -19.3731 C   0  0  0  0  0  0  0  0  0  0  0  0
   -3.6526    1.3995  -19.6096 C   0  0  0  0  0  0  0  0  0  0  0  0
   -3.3139    1.7649  -20.8830 C   0  0  0  0  0  0  0  0  0  0  0  0
   -4.0961    1.3457  -21.9818 C   0  0  0  0  0  0  0  0  0  0  0  0
   -5.1769    0.5166  -21.7844 C   0  0  0  0  0  0  0  0  0  0  0  0
   -5.5288    0.0919  -20.4730 C   0  0  0  0  0  0  0  0  0  0  0  0
   -5.7708    0.2014  -22.6381 H   0  0  0  0  0  0  0  0  0  0  0  0
   -3.8432    1.6736  -22.9850 H   0  0  0  0  0  0  0  0  0  0  0  0
   -2.4404    2.3845  -21.0557 H   0  0  0  0  0  0  0  0  0  0  0  0
   -3.0775    1.7369  -18.7518 H   0  0  0  0  0  0  0  0  0  0  0  0
   -4.6240    0.5769  -17.2087 H   0  0  0  0  0  0  0  0  0  0  0  0
   -7.7750   -1.6787  -18.6344 H   0  0  0  0  0  0  0  0  0  0  0  0
   -7.0101   -2.5583  -21.9310 C   0  0  0  0  0  0  0  0  0  0  0  0
   -8.2938   -2.9031  -22.6991 C   0  0  2  0  0  0  0  0  0  0  0  0
   -8.0064   -3.6493  -24.0098 C   0  0  0  0  0  0  0  0  0  0  0  0
   -7.4358   -4.9647  -23.7733 N   0  0  0  0  0  0  0  0  0  0  0  0
   -8.0946   -6.1156  -23.5022 C   0  0  0  0  0  0  0  0  0  0  0  0
   -7.1379   -7.0810  -23.2873 C   0  0  0  0  0  0  0  0  0  0  0  0
   -5.9145   -6.4041  -23.4559 C   0  0  0  0  0  0  0  0  0  0  0  0
   -6.1042   -5.1190  -23.7366 N   0  0  0  0  0  0  0  0  0  0  0  0
   -4.9078   -6.8026  -23.4000 H   0  0  0  0  0  0  0  0  0  0  0  0
   -7.2980   -8.1219  -23.0473 H   0  0  0  0  0  0  0  0  0  0  0  0
   -9.1770   -6.1719  -23.4914 H   0  0  0  0  0  0  0  0  0  0  0  0
   -7.2749   -3.1010  -24.6125 H   0  0  0  0  0  0  0  0  0  0  0  0
   -8.9220   -3.7699  -24.5999 H   0  0  0  0  0  0  0  0  0  0  0  0
   -8.8814   -3.5777  -22.0711 H   0  0  0  0  0  0  0  0  0  0  0  0
   -6.1670   -2.3784  -22.6181 H   0  0  0  0  0  0  0  0  0  0  0  0
   -6.7126   -3.3582  -21.2467 H   0  0  0  0  0  0  0  0  0  0  0  0
  -10.5908   -1.6831  -22.7421 C   0  0  0  0  0  0  0  0  0  0  0  0
  -11.1887   -2.6302  -21.9073 C   0  0  0  0  0  0  0  0  0  0  0  0
  -12.5617   -2.6594  -21.7612 C   0  0  0  0  0  0  0  0  0  0  0  0
  -13.2596   -3.7826  -20.6386 Cl  0  0  0  0  0  0  0  0  0  0  0  0
  -13.3978   -1.7833  -22.4495 C   0  0  0  0  0  0  0  0  0  0  0  0
  -12.8136   -0.8265  -23.2497 C   0  0  0  0  0  0  0  0  0  0  0  0
  -11.4290   -0.7557  -23.3741 C   0  0  0  0  0  0  0  0  0  0  0  0
  -10.8702    0.3921  -24.1510 C   0  0  0  0  0  0  0  0  0  0  0  0
  -11.5846    1.2758  -24.6083 O   0  0  0  0  0  0  0  0  0  0  0  0
  -13.4044   -0.0980  -23.7897 H   0  0  0  0  0  0  0  0  0  0  0  0
  -14.4745   -1.8518  -22.3426 H   0  0  0  0  0  0  0  0  0  0  0  0
  -10.6020   -3.3485  -21.3477 H   0  0  0  0  0  0  0  0  0  0  0  0
   -8.9419   -1.4892  -24.9870 H   0  0  0  0  0  0  0  0  0  0  0  0
   -7.6645   -0.5722  -24.1718 H   0  0  0  0  0  0  0  0  0  0  0  0
   -9.6837    2.2780  -25.1325 H   0  0  0  0  0  0  0  0  0  0  0  0
   -8.3667    1.2847  -25.8047 H   0  0  0  0  0  0  0  0  0  0  0  0
   -9.3101    2.6752  -22.5292 H   0  0  0  0  0  0  0  0  0  0  0  0
   -6.9264    2.5730  -21.3910 H   0  0  0  0  0  0  0  0  0  0  0  0
   -7.9057    4.0835  -21.1930 H   0  0  0  0  0  0  0  0  0  0  0  0
   -6.6710    3.9997  -22.4383 H   0  0  0  0  0  0  0  0  0  0  0  0
  1  2  1  0
  2  3  1  0
  3  4  2  0
  3  5  1  0
  5  6  1  0
  6  7  1  0
  8  7  1  6
  8  9  1  0
  9 10  2  0
  9 11  1  0
 11 12  1  0
 12 13  2  0
 13 14  1  0
 14 15  2  0
 15 16  1  0
 16 17  2  0
 17 18  1  0
 18 19  2  0
 19 20  1  0
 20 21  2  0
 20 22  1  0
 19 23  1  0
 18 24  1  0
 17 25  1  0
 15 26  1  0
 13 27  1  0
 11 28  1  0
 28 29  1  0
 29 30  1  0
 30 31  1  0
 31 32  1  0
 32 33  2  0
 33 34  1  0
 34 35  2  0
 34 36  1  0
 33 37  1  0
 32 38  1  0
 30 39  1  0
 30 40  1  0
 29 41  1  1
 28 42  1  0
 28 43  1  0
  8 44  1  0
 44 45  2  0
 45 46  1  0
 46 47  1  0
 46 48  2  0
 48 49  1  0
 49 50  2  0
 50 51  1  0
 51 52  2  0
 49 53  1  0
 48 54  1  0
 45 55  1  0
  7 56  1  0
  7 57  1  0
  5 58  1  0
  5 59  1  0
  2 60  1  0
  1 61  1  0
  1 62  1  0
  1 63  1  0
 51  6  1  0
 29  8  1  0
 35 31  1  0
 50 44  1  0
 21 12  1  0
 21 16  1  0
M  END
>  <cnnaffinities>  (16) 
[6.39099]

>  <score>  (16) 
6.39099

>  <index>  (16) 
15

>  <Smiles>  (16) 
C(N(C(=O)C(N1C([C@@]2(C(=O)N(c3c(nc(c4c(c(c(c(c34)[H])[H])[H])[H])[H])[H])C([C@@]2(C(n2c(c(c(n2)[H])[H])[H])([H])[H])[H])([H])[H])c2c(c(Cl)c(c(c2C1=O)[H])[H])[H])([H])[H])([H])[H])[H])([H])([H])[H]

>  <h>  (16) 
<NA>

>  <Training>  (16) 
True

>  <Success>  (16) 
True

>  <enamine_searched>  (16) 
False

>  <enamine_id>  (16) 
nan

$$$$

     RDKit          3D

 61 66  0  0  0  0  0  0  0  0999 V2000
   -7.8849    2.6740  -21.9567 C   0  0  0  0  0  0  0  0  0  0  0  0
   -8.8071    2.2707  -22.9971 N   0  0  0  0  0  0  0  0  0  0  0  0
   -8.3566    1.8103  -24.1939 C   0  0  0  0  0  0  0  0  0  0  0  0
   -7.1780    1.8359  -24.5256 O   0  0  0  0  0  0  0  0  0  0  0  0
   -9.4667    1.1960  -25.0617 C   0  0  0  0  0  0  0  0  0  0  0  0
  -10.0348    0.0742  -24.3354 N   0  0  0  0  0  0  0  0  0  0  0  0
   -9.1606   -1.0677  -24.1024 C   0  0  0  0  0  0  0  0  0  0  0  0
   -9.4031   -1.7713  -22.7368 C   0  0  2  0  0  0  0  0  0  0  0  0
   -8.9129   -0.8615  -21.5738 C   0  0  0  0  0  0  0  0  0  0  0  0
   -9.5480    0.0204  -21.0259 O   0  0  0  0  0  0  0  0  0  0  0  0
   -7.6248   -1.2243  -21.2572 N   0  0  0  0  0  0  0  0  0  0  0  0
   -6.8600   -0.6655  -20.1969 C   0  0  0  0  0  0  0  0  0  0  0  0
   -7.1357   -0.9951  -18.8927 C   0  0  0  0  0  0  0  0  0  0  0  0
   -6.3823   -0.6096  -17.8355 N   0  0  0  0  0  0  0  0  0  0  0  0
   -5.3349    0.1412  -18.0769 C   0  0  0  0  0  0  0  0  0  0  0  0
   -4.9469    0.5825  -19.3738 C   0  0  0  0  0  0  0  0  0  0  0  0
   -3.8307    1.4377  -19.5799 C   0  0  0  0  0  0  0  0  0  0  0  0
   -3.4980    1.8547  -20.8404 C   0  0  0  0  0  0  0  0  0  0  0  0
   -4.2508    1.4217  -21.9507 C   0  0  0  0  0  0  0  0  0  0  0  0
   -5.3308    0.5859  -21.7749 C   0  0  0  0  0  0  0  0  0  0  0  0
   -5.7180    0.1506  -20.4784 C   0  0  0  0  0  0  0  0  0  0  0  0
   -5.9200    0.2814  -22.6354 H   0  0  0  0  0  0  0  0  0  0  0  0
   -3.9876    1.7637  -22.9474 H   0  0  0  0  0  0  0  0  0  0  0  0
   -2.6535    2.5204  -20.9921 H   0  0  0  0  0  0  0  0  0  0  0  0
   -3.2602    1.7564  -18.7116 H   0  0  0  0  0  0  0  0  0  0  0  0
   -4.7311    0.4336  -17.2189 H   0  0  0  0  0  0  0  0  0  0  0  0
   -7.9865   -1.6343  -18.6683 H   0  0  0  0  0  0  0  0  0  0  0  0
   -7.1611   -2.3722  -22.0072 C   0  0  0  0  0  0  0  0  0  0  0  0
   -8.4613   -2.9955  -22.5491 C   0  0  2  0  0  0  0  0  0  0  0  0
   -8.1100   -3.8779  -23.7489 C   0  0  0  0  0  0  0  0  0  0  0  0
   -9.1924   -4.6821  -24.2857 N   0  0  0  0  0  0  0  0  0  0  0  0
  -10.0547   -4.2780  -25.2035 N   0  0  0  0  0  0  0  0  0  0  0  0
  -10.7694   -5.3777  -25.3960 C   0  0  0  0  0  0  0  0  0  0  0  0
  -10.3513   -6.3998  -24.6235 N   0  0  0  0  0  0  0  0  0  0  0  0
   -9.3523   -5.9393  -23.9266 N   0  0  0  0  0  0  0  0  0  0  0  0
  -11.5821   -5.4452  -26.1106 H   0  0  0  0  0  0  0  0  0  0  0  0
   -7.7053   -3.2726  -24.5619 H   0  0  0  0  0  0  0  0  0  0  0  0
   -7.3355   -4.5827  -23.4407 H   0  0  0  0  0  0  0  0  0  0  0  0
   -8.8828   -3.6263  -21.7621 H   0  0  0  0  0  0  0  0  0  0  0  0
   -6.5075   -2.0762  -22.8473 H   0  0  0  0  0  0  0  0  0  0  0  0
   -6.5919   -3.0498  -21.3633 H   0  0  0  0  0  0  0  0  0  0  0  0
  -10.8948   -1.9624  -22.5703 C   0  0  0  0  0  0  0  0  0  0  0  0
  -11.4433   -3.0205  -21.8410 C   0  0  0  0  0  0  0  0  0  0  0  0
  -12.7543   -2.9369  -21.4037 C   0  0  0  0  0  0  0  0  0  0  0  0
  -13.3731   -4.1328  -20.3203 Cl  0  0  0  0  0  0  0  0  0  0  0  0
  -13.5872   -1.8677  -21.7278 C   0  0  0  0  0  0  0  0  0  0  0  0
  -13.0692   -0.8606  -22.5078 C   0  0  0  0  0  0  0  0  0  0  0  0
  -11.7556   -0.9202  -22.9596 C   0  0  0  0  0  0  0  0  0  0  0  0
  -11.2877    0.2106  -23.8152 C   0  0  0  0  0  0  0  0  0  0  0  0
  -11.9627    1.2193  -24.0029 O   0  0  0  0  0  0  0  0  0  0  0  0
  -13.6721   -0.0041  -22.7794 H   0  0  0  0  0  0  0  0  0  0  0  0
  -14.6038   -1.8374  -21.3482 H   0  0  0  0  0  0  0  0  0  0  0  0
  -10.8479   -3.8893  -21.5748 H   0  0  0  0  0  0  0  0  0  0  0  0
   -9.3113   -1.7992  -24.9040 H   0  0  0  0  0  0  0  0  0  0  0  0
   -8.1227   -0.7111  -24.1456 H   0  0  0  0  0  0  0  0  0  0  0  0
   -9.0793    0.8836  -26.0378 H   0  0  0  0  0  0  0  0  0  0  0  0
  -10.2899    1.8978  -25.2296 H   0  0  0  0  0  0  0  0  0  0  0  0
   -9.7445    2.0332  -22.6976 H   0  0  0  0  0  0  0  0  0  0  0  0
   -7.7908    1.8854  -21.1955 H   0  0  0  0  0  0  0  0  0  0  0  0
   -6.9175    2.8461  -22.4268 H   0  0  0  0  0  0  0  0  0  0  0  0
   -8.2001    3.6045  -21.4830 H   0  0  0  0  0  0  0  0  0  0  0  0
  1  2  1  0
  2  3  1  0
  3  4  2  0
  3  5  1  0
  5  6  1  0
  6  7  1  0
  8  7  1  6
  8  9  1  0
  9 10  2  0
  9 11  1  0
 11 12  1  0
 12 13  2  0
 13 14  1  0
 14 15  2  0
 15 16  1  0
 16 17  2  0
 17 18  1  0
 18 19  2  0
 19 20  1  0
 20 21  2  0
 20 22  1  0
 19 23  1  0
 18 24  1  0
 17 25  1  0
 15 26  1  0
 13 27  1  0
 11 28  1  0
 28 29  1  0
 29 30  1  0
 30 31  1  0
 31 32  1  0
 32 33  2  0
 33 34  1  0
 34 35  2  0
 33 36  1  0
 30 37  1  0
 30 38  1  0
 29 39  1  1
 28 40  1  0
 28 41  1  0
  8 42  1  0
 42 43  2  0
 43 44  1  0
 44 45  1  0
 44 46  2  0
 46 47  1  0
 47 48  2  0
 48 49  1  0
 49 50  2  0
 47 51  1  0
 46 52  1  0
 43 53  1  0
  7 54  1  0
  7 55  1  0
  5 56  1  0
  5 57  1  0
  2 58  1  0
  1 59  1  0
  1 60  1  0
  1 61  1  0
 49  6  1  0
 29  8  1  0
 35 31  1  0
 48 42  1  0
 21 12  1  0
 21 16  1  0
M  END
>  <cnnaffinities>  (17) 
[6.30699, 6.04345, 6.21053, 5.97581]

>  <score>  (17) 
6.30699

>  <index>  (17) 
16

>  <Smiles>  (17) 
C(N(C(=O)C(N1C([C@@]2(C(=O)N(c3c(nc(c4c(c(c(c(c34)[H])[H])[H])[H])[H])[H])C([C@@]2(C(n2nc(nn2)[H])([H])[H])[H])([H])[H])c2c(c(Cl)c(c(c2C1=O)[H])[H])[H])([H])[H])([H])[H])[H])([H])([H])[H]

>  <h>  (17) 
<NA>

>  <Training>  (17) 
True

>  <Success>  (17) 
True

>  <enamine_searched>  (17) 
False

>  <enamine_id>  (17) 
nan

$$$$

     RDKit          3D

 38 41  0  0  0  0  0  0  0  0999 V2000
   -9.3420   -4.9487  -25.6929 C   0  0  0  0  0  0  0  0  0  0  0  0
   -9.3441   -4.2061  -24.3529 C   0  0  2  0  0  0  0  0  0  0  0  0
  -10.3431   -3.0398  -24.3808 C   0  0  0  0  0  0  0  0  0  0  0  0
  -10.4286   -2.3511  -23.0089 C   0  0  0  0  0  0  0  0  0  0  0  0
   -9.0883   -2.0842  -22.4741 C   0  0  0  0  0  0  0  0  0  0  0  0
   -8.6919   -1.1418  -21.4683 C   0  0  0  0  0  0  0  0  0  0  0  0
   -9.3088   -0.2263  -20.9683 O   0  0  0  0  0  1  0  0  0  0  0  0
   -7.3359   -1.4648  -21.2010 N   0  0  0  0  0  0  0  0  0  0  0  0
   -6.5682   -0.8449  -20.1817 C   0  0  0  0  0  0  0  0  0  0  0  0
   -6.8933   -1.0637  -18.8688 C   0  0  0  0  0  0  0  0  0  0  0  0
   -6.2042   -0.5573  -17.8179 N   0  0  0  0  0  0  0  0  0  0  0  0
   -5.1682    0.2022  -18.0819 C   0  0  0  0  0  0  0  0  0  0  0  0
   -4.7463    0.5467  -19.3946 C   0  0  0  0  0  0  0  0  0  0  0  0
   -3.6194    1.3831  -19.6191 C   0  0  0  0  0  0  0  0  0  0  0  0
   -3.2644    1.7307  -20.8958 C   0  0  0  0  0  0  0  0  0  0  0  0
   -4.0347    1.2810  -21.9887 C   0  0  0  0  0  0  0  0  0  0  0  0
   -5.1218    0.4610  -21.7981 C   0  0  0  0  0  0  0  0  0  0  0  0
   -5.4898    0.0499  -20.4857 C   0  0  0  0  0  0  0  0  0  0  0  0
   -5.6524    0.0486  -22.6504 H   0  0  0  0  0  0  0  0  0  0  0  0
   -3.7088    1.5143  -23.0004 H   0  0  0  0  0  0  0  0  0  0  0  0
   -2.3728    2.3244  -21.0755 H   0  0  0  0  0  0  0  0  0  0  0  0
   -3.0647    1.7386  -18.7567 H   0  0  0  0  0  0  0  0  0  0  0  0
   -4.6225    0.6040  -17.2282 H   0  0  0  0  0  0  0  0  0  0  0  0
   -7.7527   -1.6777  -18.6088 H   0  0  0  0  0  0  0  0  0  0  0  0
   -6.8743   -2.4331  -22.1047 C   0  0  0  0  0  0  0  0  0  0  0  0
   -5.7388   -2.8408  -22.2339 O   0  0  0  0  0  0  0  0  0  0  0  0
   -7.9916   -2.7916  -22.8494 N   0  0  0  0  0  0  0  0  0  0  0  0
   -7.9359   -3.6870  -24.0054 C   0  0  0  0  0  0  0  0  0  0  0  0
   -7.2558   -4.5032  -23.7356 H   0  0  0  0  0  0  0  0  0  0  0  0
   -7.5127   -3.1516  -24.8741 H   0  0  0  0  0  0  0  0  0  0  0  0
  -10.9648   -1.4006  -23.0667 H   0  0  0  0  0  0  0  0  0  0  0  0
  -11.0065   -2.9785  -22.3097 H   0  0  0  0  0  0  0  0  0  0  0  0
  -10.0166   -2.3173  -25.1446 H   0  0  0  0  0  0  0  0  0  0  0  0
  -11.3307   -3.4117  -24.6907 H   0  0  0  0  0  0  0  0  0  0  0  0
   -9.6531   -4.9006  -23.5535 H   0  0  0  0  0  0  0  0  0  0  0  0
  -10.3401   -5.3435  -25.9158 H   0  0  0  0  0  0  0  0  0  0  0  0
   -8.6383   -5.7896  -25.6885 H   0  0  0  0  0  0  0  0  0  0  0  0
   -9.0633   -4.2726  -26.5146 H   0  0  0  0  0  0  0  0  0  0  0  0
  1  2  1  0
  2  3  1  0
  3  4  1  0
  4  5  1  0
  5  6  2  0
  6  7  1  0
  6  8  1  0
  8  9  1  0
  9 10  2  0
 10 11  1  0
 11 12  2  0
 12 13  1  0
 13 14  2  0
 14 15  1  0
 15 16  2  0
 16 17  1  0
 17 18  2  0
 17 19  1  0
 16 20  1  0
 15 21  1  0
 14 22  1  0
 12 23  1  0
 10 24  1  0
  8 25  1  0
 25 26  2  0
 25 27  1  0
 27 28  1  0
 28 29  1  0
 28 30  1  0
  4 31  1  0
  4 32  1  0
  3 33  1  0
  3 34  1  0
  2 35  1  1
  1 36  1  0
  1 37  1  0
  1 38  1  0
 28  2  1  0
 27  5  1  0
 18  9  1  0
 18 13  1  0
M  CHG  1   7  -1
M  END
>  <cnnaffinities>  (18) 
[4.92638, 4.31376]

>  <score>  (18) 
4.92638

>  <index>  (18) 
17

>  <Smiles>  (18) 
C([C@@]1(C(C(c2c([O-])n(c3c(nc(c4c(c(c(c(c34)[H])[H])[H])[H])[H])[H])c(=O)n2C1([H])[H])([H])[H])([H])[H])[H])([H])([H])[H]

>  <h>  (18) 
<NA>

>  <Training>  (18) 
True

>  <Success>  (18) 
True

>  <enamine_searched>  (18) 
False

>  <enamine_id>  (18) 
nan

$$$$

     RDKit          3D

 56 61  0  0  0  0  0  0  0  0999 V2000
  -10.2041   -2.9498  -22.0443 C   0  0  0  0  0  0  0  0  0  0  0  0
   -9.1618   -1.9981  -22.6547 C   0  0  1  0  0  0  0  0  0  0  0  0
   -8.7262   -0.9426  -21.6130 C   0  0  0  0  0  0  0  0  0  0  0  0
   -7.4148   -1.3801  -21.1944 N   0  0  0  0  0  0  0  0  0  0  0  0
   -6.6598   -0.7604  -20.1674 C   0  0  0  0  0  0  0  0  0  0  0  0
   -6.9558   -1.0204  -18.8541 C   0  0  0  0  0  0  0  0  0  0  0  0
   -6.2504   -0.5458  -17.7990 N   0  0  0  0  0  0  0  0  0  0  0  0
   -5.2147    0.2164  -18.0622 C   0  0  0  0  0  0  0  0  0  0  0  0
   -4.8079    0.5784  -19.3783 C   0  0  0  0  0  0  0  0  0  0  0  0
   -3.6756    1.4044  -19.6012 C   0  0  0  0  0  0  0  0  0  0  0  0
   -3.3453    1.7987  -20.8682 C   0  0  0  0  0  0  0  0  0  0  0  0
   -4.1391    1.3935  -21.9666 C   0  0  0  0  0  0  0  0  0  0  0  0
   -5.2239    0.5705  -21.7818 C   0  0  0  0  0  0  0  0  0  0  0  0
   -5.5693    0.1160  -20.4736 C   0  0  0  0  0  0  0  0  0  0  0  0
   -5.8184    0.2556  -22.6400 H   0  0  0  0  0  0  0  0  0  0  0  0
   -3.8722    1.7267  -22.9651 H   0  0  0  0  0  0  0  0  0  0  0  0
   -2.4823    2.4364  -21.0379 H   0  0  0  0  0  0  0  0  0  0  0  0
   -3.0954    1.7264  -18.7399 H   0  0  0  0  0  0  0  0  0  0  0  0
   -4.6430    0.5933  -17.2137 H   0  0  0  0  0  0  0  0  0  0  0  0
   -7.7952   -1.6704  -18.6119 H   0  0  0  0  0  0  0  0  0  0  0  0
   -6.8419   -2.3353  -22.0051 C   0  0  0  0  0  0  0  0  0  0  0  0
   -5.7355   -2.7927  -21.8321 O   0  0  0  0  0  0  0  0  0  0  0  0
   -7.8312   -2.6752  -23.1458 C   0  0  1  0  0  0  0  0  0  0  0  0
   -7.9784   -4.2081  -23.3443 C   0  0  0  0  0  0  0  0  0  0  0  0
   -6.8072   -4.8374  -23.9414 N   0  0  0  0  0  0  0  0  0  0  0  0
   -6.4102   -6.1915  -23.5421 C   0  0  0  0  0  0  0  0  0  0  0  0
   -5.3573   -6.1793  -22.5292 C   0  0  0  0  0  0  0  0  0  0  0  0
   -3.8402   -6.2756  -22.8533 C   0  0  0  0  0  0  0  0  0  0  0  0
   -3.9942   -6.1408  -23.0441 C   0  0  0  0  0  0  0  0  0  0  0  0
   -4.8173   -5.8588  -20.4395 N   0  0  0  0  0  0  0  0  0  0  0  0
   -5.7885   -6.0458  -21.2368 N   0  0  0  0  0  0  0  0  0  0  0  0
   -5.2248   -5.6900  -19.5107 H   0  0  0  0  0  0  0  0  0  0  0  0
   -1.7108   -5.5053  -23.6837 H   0  0  0  0  0  0  0  0  0  0  0  0
   -2.9990   -5.7581  -23.5065 H   0  0  0  0  0  0  0  0  0  0  0  0
   -7.2903   -6.6816  -23.1202 H   0  0  0  0  0  0  0  0  0  0  0  0
   -6.1221   -6.7365  -24.4463 H   0  0  0  0  0  0  0  0  0  0  0  0
   -6.2259   -4.3121  -25.0606 C   0  0  0  0  0  0  0  0  0  0  0  0
   -5.4670   -4.9713  -25.7608 O   0  0  0  0  0  0  0  0  0  0  0  0
   -6.5697   -2.8734  -25.3570 C   0  0  0  0  0  0  0  0  0  0  0  0
   -6.0722   -2.3259  -26.5388 C   0  0  0  0  0  0  0  0  0  0  0  0
   -6.2946   -1.0012  -26.8626 C   0  0  0  0  0  0  0  0  0  0  0  0
   -7.0136   -0.2291  -25.9608 C   0  0  0  0  0  0  0  0  0  0  0  0
   -7.2349    1.0631  -26.2623 F   0  0  0  0  0  0  0  0  0  0  0  0
   -7.5125   -0.7366  -24.7749 C   0  0  0  0  0  0  0  0  0  0  0  0
   -7.3150   -2.0911  -24.4627 C   0  0  0  0  0  0  0  0  0  0  0  0
   -8.0619   -0.0584  -24.1282 H   0  0  0  0  0  0  0  0  0  0  0  0
   -5.9237   -0.5538  -27.7793 H   0  0  0  0  0  0  0  0  0  0  0  0
   -5.4948   -2.9728  -27.1888 H   0  0  0  0  0  0  0  0  0  0  0  0
   -8.8417   -4.3750  -24.0030 H   0  0  0  0  0  0  0  0  0  0  0  0
   -8.1844   -4.6914  -22.3865 H   0  0  0  0  0  0  0  0  0  0  0  0
   -9.4096   -0.9118  -20.7647 H   0  0  0  0  0  0  0  0  0  0  0  0
   -8.6981    0.0752  -22.0293 H   0  0  0  0  0  0  0  0  0  0  0  0
   -9.6501   -1.5117  -23.5062 H   0  0  0  0  0  0  0  0  0  0  0  0
  -11.0710   -2.3841  -21.6829 H   0  0  0  0  0  0  0  0  0  0  0  0
   -9.7979   -3.5085  -21.1936 H   0  0  0  0  0  0  0  0  0  0  0  0
  -10.5770   -3.6676  -22.7812 H   0  0  0  0  0  0  0  0  0  0  0  0
  1  2  1  0
  2  3  1  0
  3  4  1  0
  4  5  1  0
  5  6  2  0
  6  7  1  0
  7  8  2  0
  8  9  1  0
  9 10  2  0
 10 11  1  0
 11 12  2  0
 12 13  1  0
 13 14  2  0
 13 15  1  0
 12 16  1  0
 11 17  1  0
 10 18  1  0
  8 19  1  0
  6 20  1  0
  4 21  1  0
 21 22  2  0
 21 23  1  0
 23 24  1  6
 24 25  1  0
 25 26  1  0
 26 27  1  0
 27 28  1  0
 28 29  2  0
 29 30  1  0
 30 31  1  0
 30 32  1  0
 29 33  1  0
 28 34  1  0
 26 35  1  0
 26 36  1  0
 25 37  1  0
 37 38  2  0
 37 39  1  0
 39 40  2  0
 40 41  1  0
 41 42  2  0
 42 43  1  0
 42 44  1  0
 44 45  2  0
 44 46  1  0
 41 47  1  0
 40 48  1  0
 24 49  1  0
 24 50  1  0
  3 51  1  0
  3 52  1  0
  2 53  1  6
  1 54  1  0
  1 55  1  0
  1 56  1  0
 23  2  1  0
 31 27  2  0
 45 39  1  0
 14  5  1  0
 45 23  1  0
 14  9  1  0
M  END
>  <cnnaffinities>  (19) 
[5.59459]

>  <score>  (19) 
5.59459

>  <index>  (19) 
18

>  <Smiles>  (19) 
C([C@]1(C(N(c2c(nc(c3c(c(c(c(c23)[H])[H])[H])[H])[H])[H])C(=O)[C@]21C(N(C(c1c(c(n(n1)[H])[H])[H])([H])[H])C(=O)c1c(c(c(F)c(c21)[H])[H])[H])([H])[H])([H])[H])[H])([H])([H])[H]

>  <h>  (19) 
<NA>

>  <Training>  (19) 
True

>  <Success>  (19) 
True

>  <enamine_searched>  (19) 
False

>  <enamine_id>  (19) 
nan

$$$$

     RDKit          3D

 42 45  0  0  0  0  0  0  0  0999 V2000
   -9.1206    0.0078  -20.7657 O   0  0  0  0  0  0  0  0  0  0  0  0
   -8.6574   -0.8735  -21.4692 C   0  0  0  0  0  0  0  0  0  0  0  0
   -9.3735   -1.4994  -22.6783 C   0  0  1  0  0  0  0  0  0  0  0  0
  -10.4463   -0.5625  -23.2000 C   0  0  0  0  0  0  0  0  0  0  0  0
  -10.0864    0.7478  -23.5068 C   0  0  0  0  0  0  0  0  0  0  0  0
  -11.0259    1.6703  -23.9335 C   0  0  0  0  0  0  0  0  0  0  0  0
  -12.3660    1.2960  -24.0014 C   0  0  0  0  0  0  0  0  0  0  0  0
  -13.5629    2.5168  -24.2710 Cl  0  0  0  0  0  0  0  0  0  0  0  0
  -12.7397   -0.0285  -23.7659 C   0  0  0  0  0  0  0  0  0  0  0  0
  -14.4021   -0.5057  -23.9180 Cl  0  0  0  0  0  0  0  0  0  0  0  0
  -11.7702   -0.9547  -23.3846 C   0  0  0  0  0  0  0  0  0  0  0  0
  -12.0738   -1.9810  -23.2081 H   0  0  0  0  0  0  0  0  0  0  0  0
  -10.7392    2.6884  -24.1863 H   0  0  0  0  0  0  0  0  0  0  0  0
   -9.0632    1.0664  -23.3334 H   0  0  0  0  0  0  0  0  0  0  0  0
   -8.3352   -1.7947  -23.7730 C   0  0  0  0  0  0  0  0  0  0  0  0
   -7.2300   -2.7589  -23.3370 C   0  0  2  0  0  0  0  0  0  0  0  0
   -7.5266   -4.1168  -23.6389 O   0  0  0  0  0  0  0  0  0  0  0  0
   -8.4008   -4.3306  -23.2824 H   0  0  0  0  0  0  0  0  0  0  0  0
   -6.9299   -2.6173  -21.8347 C   0  0  0  0  0  0  0  0  0  0  0  0
   -7.3794   -1.3555  -21.2592 N   0  0  0  0  0  0  0  0  0  0  0  0
   -6.6229   -0.7838  -20.1993 C   0  0  0  0  0  0  0  0  0  0  0  0
   -6.9227   -1.0590  -18.8889 C   0  0  0  0  0  0  0  0  0  0  0  0
   -6.2156   -0.5869  -17.8320 N   0  0  0  0  0  0  0  0  0  0  0  0
   -5.1869    0.1881  -18.0825 C   0  0  0  0  0  0  0  0  0  0  0  0
   -4.7670    0.5587  -19.3919 C   0  0  0  0  0  0  0  0  0  0  0  0
   -3.6347    1.3861  -19.6188 C   0  0  0  0  0  0  0  0  0  0  0  0
   -3.2733    1.7220  -20.8955 C   0  0  0  0  0  0  0  0  0  0  0  0
   -4.0381    1.2735  -21.9956 C   0  0  0  0  0  0  0  0  0  0  0  0
   -5.1240    0.4517  -21.7985 C   0  0  0  0  0  0  0  0  0  0  0  0
   -5.5093    0.0716  -20.4872 C   0  0  0  0  0  0  0  0  0  0  0  0
   -5.6668    0.0396  -22.6424 H   0  0  0  0  0  0  0  0  0  0  0  0
   -3.7277    1.5272  -23.0064 H   0  0  0  0  0  0  0  0  0  0  0  0
   -2.3825    2.3191  -21.0788 H   0  0  0  0  0  0  0  0  0  0  0  0
   -3.0651    1.7288  -18.7580 H   0  0  0  0  0  0  0  0  0  0  0  0
   -4.6390    0.5794  -17.2268 H   0  0  0  0  0  0  0  0  0  0  0  0
   -7.7831   -1.6750  -18.6333 H   0  0  0  0  0  0  0  0  0  0  0  0
   -7.4205   -3.4763  -21.3486 H   0  0  0  0  0  0  0  0  0  0  0  0
   -5.8537   -2.6739  -21.6457 H   0  0  0  0  0  0  0  0  0  0  0  0
   -6.3298   -2.5553  -23.9311 H   0  0  0  0  0  0  0  0  0  0  0  0
   -7.8881   -0.8371  -24.0700 H   0  0  0  0  0  0  0  0  0  0  0  0
   -8.8260   -2.2101  -24.6594 H   0  0  0  0  0  0  0  0  0  0  0  0
   -9.8211   -2.4448  -22.3362 H   0  0  0  0  0  0  0  0  0  0  0  0
  1  2  2  0
  2  3  1  0
  3  4  1  0
  4  5  2  0
  5  6  1  0
  6  7  2  0
  7  8  1  0
  7  9  1  0
  9 10  1  0
  9 11  2  0
 11 12  1  0
  6 13  1  0
  5 14  1  0
  3 15  1  0
 15 16  1  0
 16 17  1  0
 17 18  1  0
 16 19  1  0
 19 20  1  0
 20 21  1  0
 21 22  2  0
 22 23  1  0
 23 24  2  0
 24 25  1  0
 25 26  2  0
 26 27  1  0
 27 28  2  0
 28 29  1  0
 29 30  2  0
 29 31  1  0
 28 32  1  0
 27 33  1  0
 26 34  1  0
 24 35  1  0
 22 36  1  0
 19 37  1  0
 19 38  1  0
 16 39  1  6
 15 40  1  0
 15 41  1  0
  3 42  1  1
 20  2  1  0
 30 21  1  0
 11  4  1  0
 30 25  1  0
M  END
>  <cnnaffinities>  (20) 
[5.22469, 5.50527, 5.54427, 5.08723]

>  <score>  (20) 
5.22469

>  <index>  (20) 
19

>  <Smiles>  (20) 
O=C1[C@@](c2c(c(c(Cl)c(Cl)c2[H])[H])[H])(C([C@](O[H])(C(N1c1c(nc(c2c(c(c(c(c12)[H])[H])[H])[H])[H])[H])([H])[H])[H])([H])[H])[H]

>  <h>  (20) 
<NA>

>  <Training>  (20) 
True

>  <Success>  (20) 
True

>  <enamine_searched>  (20) 
False

>  <enamine_id>  (20) 
nan

$$$$

     RDKit          3D

 66 71  0  0  0  0  0  0  0  0999 V2000
   -7.9755    2.4859  -21.9321 C   0  0  0  0  0  0  0  0  0  0  0  0
   -8.8589    2.1672  -23.0302 N   0  0  0  0  0  0  0  0  0  0  0  0
   -8.4121    1.5574  -24.1451 C   0  0  0  0  0  0  0  0  0  0  0  0
   -7.2240    1.3849  -24.3781 O   0  0  0  0  0  0  0  0  0  0  0  0
   -9.5364    0.9863  -25.0226 C   0  0  0  0  0  0  0  0  0  0  0  0
  -10.1215   -0.1279  -24.3012 N   0  0  0  0  0  0  0  0  0  0  0  0
   -9.2950   -1.3034  -24.0996 C   0  0  0  0  0  0  0  0  0  0  0  0
   -9.4453   -1.9131  -22.6805 C   0  0  2  0  0  0  0  0  0  0  0  0
   -8.8971   -0.9659  -21.5721 C   0  0  0  0  0  0  0  0  0  0  0  0
   -9.5249   -0.1031  -20.9925 O   0  0  0  0  0  0  0  0  0  0  0  0
   -7.5789   -1.2865  -21.3274 N   0  0  0  0  0  0  0  0  0  0  0  0
   -6.8265   -0.7283  -20.2564 C   0  0  0  0  0  0  0  0  0  0  0  0
   -7.1205   -1.0558  -18.9532 C   0  0  0  0  0  0  0  0  0  0  0  0
   -6.3908   -0.6478  -17.8871 N   0  0  0  0  0  0  0  0  0  0  0  0
   -5.3474    0.1139  -18.1096 C   0  0  0  0  0  0  0  0  0  0  0  0
   -4.9447    0.5501  -19.4045 C   0  0  0  0  0  0  0  0  0  0  0  0
   -3.8340    1.4149  -19.5997 C   0  0  0  0  0  0  0  0  0  0  0  0
   -3.5067    1.8478  -20.8559 C   0  0  0  0  0  0  0  0  0  0  0  0
   -4.2499    1.4186  -21.9739 C   0  0  0  0  0  0  0  0  0  0  0  0
   -5.3026    0.5429  -21.8151 C   0  0  0  0  0  0  0  0  0  0  0  0
   -5.6943    0.1077  -20.5203 C   0  0  0  0  0  0  0  0  0  0  0  0
   -5.8634    0.2128  -22.6858 H   0  0  0  0  0  0  0  0  0  0  0  0
   -3.9861    1.7705  -22.9674 H   0  0  0  0  0  0  0  0  0  0  0  0
   -2.6678    2.5221  -21.0020 H   0  0  0  0  0  0  0  0  0  0  0  0
   -3.2632    1.7285  -18.7299 H   0  0  0  0  0  0  0  0  0  0  0  0
   -4.7594    0.4282  -17.2439 H   0  0  0  0  0  0  0  0  0  0  0  0
   -7.9735   -1.6926  -18.7248 H   0  0  0  0  0  0  0  0  0  0  0  0
   -7.1484   -2.4592  -22.0701 C   0  0  0  0  0  0  0  0  0  0  0  0
   -8.4815   -3.1222  -22.4753 C   0  0  2  0  0  0  0  0  0  0  0  0
   -8.3343   -4.1219  -23.6400 C   0  0  0  0  0  0  0  0  0  0  0  0
   -7.4449   -5.3221  -23.3566 C   0  0  0  0  0  0  0  0  0  0  0  0
   -6.0740   -5.2843  -23.6390 C   0  0  0  0  0  0  0  0  0  0  0  0
   -5.2718   -6.4102  -23.4724 C   0  0  0  0  0  0  0  0  0  0  0  0
   -5.8206   -7.5947  -22.9909 C   0  0  0  0  0  0  0  0  0  0  0  0
   -7.1727   -7.6382  -22.6724 C   0  0  0  0  0  0  0  0  0  0  0  0
   -7.9735   -6.5134  -22.8512 C   0  0  0  0  0  0  0  0  0  0  0  0
   -9.0343   -6.5782  -22.6184 H   0  0  0  0  0  0  0  0  0  0  0  0
   -7.6159   -8.5566  -22.2973 H   0  0  0  0  0  0  0  0  0  0  0  0
   -5.2019   -8.4812  -22.8777 H   0  0  0  0  0  0  0  0  0  0  0  0
   -4.2180   -6.3679  -23.7346 H   0  0  0  0  0  0  0  0  0  0  0  0
   -5.6284   -4.3634  -24.0170 H   0  0  0  0  0  0  0  0  0  0  0  0
   -9.3390   -4.4605  -23.9311 H   0  0  0  0  0  0  0  0  0  0  0  0
   -7.9218   -3.5891  -24.5088 H   0  0  0  0  0  0  0  0  0  0  0  0
   -8.8374   -3.6638  -21.5924 H   0  0  0  0  0  0  0  0  0  0  0  0
   -6.5174   -3.1101  -21.4555 H   0  0  0  0  0  0  0  0  0  0  0  0
   -6.5739   -2.1649  -22.9652 H   0  0  0  0  0  0  0  0  0  0  0  0
  -10.9322   -2.0988  -22.4606 C   0  0  0  0  0  0  0  0  0  0  0  0
  -11.4716   -3.1464  -21.7107 C   0  0  0  0  0  0  0  0  0  0  0  0
  -12.7916   -3.0699  -21.2914 C   0  0  0  0  0  0  0  0  0  0  0  0
  -13.4525   -4.2478  -20.2075 Cl  0  0  0  0  0  0  0  0  0  0  0  0
  -13.6201   -1.9992  -21.6295 C   0  0  0  0  0  0  0  0  0  0  0  0
  -13.1035   -0.9840  -22.3984 C   0  0  0  0  0  0  0  0  0  0  0  0
  -11.7860   -1.0489  -22.8319 C   0  0  0  0  0  0  0  0  0  0  0  0
  -11.3057    0.0743  -23.6727 C   0  0  0  0  0  0  0  0  0  0  0  0
  -11.9263    1.1293  -23.7620 O   0  0  0  0  0  0  0  0  0  0  0  0
  -13.6858   -0.1064  -22.6619 H   0  0  0  0  0  0  0  0  0  0  0  0
  -14.6367   -1.9664  -21.2534 H   0  0  0  0  0  0  0  0  0  0  0  0
  -10.8501   -3.9758  -21.3874 H   0  0  0  0  0  0  0  0  0  0  0  0
   -8.2618   -0.9946  -24.2842 H   0  0  0  0  0  0  0  0  0  0  0  0
   -9.5769   -2.0637  -24.8394 H   0  0  0  0  0  0  0  0  0  0  0  0
   -9.1460    0.6296  -25.9782 H   0  0  0  0  0  0  0  0  0  0  0  0
  -10.3346    1.7182  -25.1760 H   0  0  0  0  0  0  0  0  0  0  0  0
   -9.8448    2.0939  -22.8218 H   0  0  0  0  0  0  0  0  0  0  0  0
   -8.2718    3.4335  -21.4923 H   0  0  0  0  0  0  0  0  0  0  0  0
   -8.0105    1.7136  -21.1502 H   0  0  0  0  0  0  0  0  0  0  0  0
   -6.9647    2.5785  -22.3336 H   0  0  0  0  0  0  0  0  0  0  0  0
  1  2  1  0
  2  3  1  0
  3  4  2  0
  3  5  1  0
  5  6  1  0
  6  7  1  0
  8  7  1  6
  8  9  1  0
  9 10  2  0
  9 11  1  0
 11 12  1  0
 12 13  2  0
 13 14  1  0
 14 15  2  0
 15 16  1  0
 16 17  2  0
 17 18  1  0
 18 19  2  0
 19 20  1  0
 20 21  2  0
 20 22  1  0
 19 23  1  0
 18 24  1  0
 17 25  1  0
 15 26  1  0
 13 27  1  0
 11 28  1  0
 28 29  1  0
 29 30  1  0
 30 31  1  0
 31 32  2  0
 32 33  1  0
 33 34  2  0
 34 35  1  0
 35 36  2  0
 36 37  1  0
 35 38  1  0
 34 39  1  0
 33 40  1  0
 32 41  1  0
 30 42  1  0
 30 43  1  0
 29 44  1  1
 28 45  1  0
 28 46  1  0
  8 47  1  0
 47 48  2  0
 48 49  1  0
 49 50  1  0
 49 51  2  0
 51 52  1  0
 52 53  2  0
 53 54  1  0
 54 55  2  0
 52 56  1  0
 51 57  1  0
 48 58  1  0
  7 59  1  0
  7 60  1  0
  5 61  1  0
  5 62  1  0
  2 63  1  0
  1 64  1  0
  1 65  1  0
  1 66  1  0
 54  6  1  0
 29  8  1  0
 36 31  1  0
 53 47  1  0
 21 12  1  0
 21 16  1  0
M  END
>  <cnnaffinities>  (21) 
[6.94565, 6.30331]

>  <score>  (21) 
6.94565

>  <index>  (21) 
20

>  <Smiles>  (21) 
C(N(C(=O)C(N1C([C@@]2(C(=O)N(c3c(nc(c4c(c(c(c(c34)[H])[H])[H])[H])[H])[H])C([C@@]2(C(c2c(c(c(c(c2[H])[H])[H])[H])[H])([H])[H])[H])([H])[H])c2c(c(Cl)c(c(c2C1=O)[H])[H])[H])([H])[H])([H])[H])[H])([H])([H])[H]

>  <h>  (21) 
<NA>

>  <Training>  (21) 
True

>  <Success>  (21) 
True

>  <enamine_searched>  (21) 
False

>  <enamine_id>  (21) 
nan

$$$$

     RDKit          3D

 63 68  0  0  0  0  0  0  0  0999 V2000
   -8.1904   -4.0525  -23.6455 C   0  0  0  0  0  0  0  0  0  0  0  0
   -8.2862   -3.2831  -22.3330 C   0  0  1  0  0  0  0  0  0  0  0  0
   -6.9675   -2.6211  -21.8937 C   0  0  0  0  0  0  0  0  0  0  0  0
   -7.3502   -1.3883  -21.2134 N   0  0  0  0  0  0  0  0  0  0  0  0
   -6.5819   -0.8060  -20.1658 C   0  0  0  0  0  0  0  0  0  0  0  0
   -6.8988   -1.0463  -18.8518 C   0  0  0  0  0  0  0  0  0  0  0  0
   -6.1976   -0.5487  -17.8005 N   0  0  0  0  0  0  0  0  0  0  0  0
   -5.1611    0.2126  -18.0649 C   0  0  0  0  0  0  0  0  0  0  0  0
   -4.7238    0.5385  -19.3817 C   0  0  0  0  0  0  0  0  0  0  0  0
   -3.5986    1.3709  -19.6263 C   0  0  0  0  0  0  0  0  0  0  0  0
   -3.2384    1.6857  -20.9075 C   0  0  0  0  0  0  0  0  0  0  0  0
   -4.0009    1.2147  -21.9968 C   0  0  0  0  0  0  0  0  0  0  0  0
   -5.0846    0.3910  -21.7877 C   0  0  0  0  0  0  0  0  0  0  0  0
   -5.4623    0.0264  -20.4716 C   0  0  0  0  0  0  0  0  0  0  0  0
   -5.6162   -0.0459  -22.6289 H   0  0  0  0  0  0  0  0  0  0  0  0
   -3.6619    1.4101  -23.0110 H   0  0  0  0  0  0  0  0  0  0  0  0
   -2.3601    2.2962  -21.1012 H   0  0  0  0  0  0  0  0  0  0  0  0
   -3.0500    1.7693  -18.7766 H   0  0  0  0  0  0  0  0  0  0  0  0
   -4.6077    0.6224  -17.2180 H   0  0  0  0  0  0  0  0  0  0  0  0
   -7.7579   -1.6800  -18.6056 H   0  0  0  0  0  0  0  0  0  0  0  0
   -8.6826   -1.0317  -21.3426 C   0  0  0  0  0  0  0  0  0  0  0  0
   -9.1064    0.0489  -20.9744 O   0  0  0  0  0  0  0  0  0  0  0  0
   -9.3599   -2.0347  -22.2592 C   0  0  1  0  0  0  0  0  0  0  0  0
   -9.5569   -1.3273  -23.7043 C   0  0  0  0  0  0  0  0  0  0  0  0
  -10.4458   -2.0292  -24.6631 N   0  0  0  0  0  0  0  0  0  0  0  0
  -10.2069   -1.9318  -26.0938 C   0  0  0  0  0  0  0  0  0  0  0  0
   -9.3145   -3.0304  -26.6961 C   0  0  0  0  0  0  0  0  0  0  0  0
   -8.1747   -2.7796  -27.0644 O   0  0  0  0  0  0  0  0  0  0  0  0
   -9.8573   -4.2738  -26.7866 N   0  0  0  0  0  0  0  0  0  0  0  0
   -9.0070   -5.3951  -27.1614 C   0  0  0  0  0  0  0  0  0  0  0  0
   -9.7163   -6.7211  -27.0413 C   0  0  0  0  0  0  0  0  0  0  0  0
   -8.8985   -7.9567  -26.7966 C   0  0  0  0  0  0  0  0  0  0  0  0
   -9.7579   -7.3978  -25.6996 C   0  0  0  0  0  0  0  0  0  0  0  0
  -10.6434   -7.9547  -25.4302 H   0  0  0  0  0  0  0  0  0  0  0  0
   -9.2649   -6.8968  -24.8674 H   0  0  0  0  0  0  0  0  0  0  0  0
   -7.8190   -7.8558  -26.7000 H   0  0  0  0  0  0  0  0  0  0  0  0
   -9.2219   -8.8869  -27.2576 H   0  0  0  0  0  0  0  0  0  0  0  0
  -10.5868   -6.8517  -27.6870 H   0  0  0  0  0  0  0  0  0  0  0  0
   -8.6240   -5.2398  -28.1772 H   0  0  0  0  0  0  0  0  0  0  0  0
   -8.1199   -5.4082  -26.5062 H   0  0  0  0  0  0  0  0  0  0  0  0
  -10.8088   -4.4374  -26.4715 H   0  0  0  0  0  0  0  0  0  0  0  0
  -11.1266   -1.9116  -26.6828 H   0  0  0  0  0  0  0  0  0  0  0  0
   -9.7165   -0.9734  -26.2999 H   0  0  0  0  0  0  0  0  0  0  0  0
  -11.4059   -2.8656  -24.1043 C   0  0  0  0  0  0  0  0  0  0  0  0
  -11.8546   -3.7968  -24.7552 O   0  0  0  0  0  0  0  0  0  0  0  0
  -11.8483   -2.6361  -22.7432 C   0  0  0  0  0  0  0  0  0  0  0  0
  -12.8503   -3.5742  -22.2507 C   0  0  0  0  0  0  0  0  0  0  0  0
  -13.3460   -3.7772  -20.7760 C   0  0  0  0  0  0  0  0  0  0  0  0
  -13.2108   -3.4377  -20.9780 C   0  0  0  0  0  0  0  0  0  0  0  0
  -13.0364   -4.5287  -19.7561 F   0  0  0  0  0  0  0  0  0  0  0  0
  -10.7807   -2.2858  -21.6891 C   0  0  0  0  0  0  0  0  0  0  0  0
  -10.7995   -2.2799  -21.6904 C   0  0  0  0  0  0  0  0  0  0  0  0
   -9.5022   -2.3896  -20.1238 H   0  0  0  0  0  0  0  0  0  0  0  0
  -14.4583   -3.6852  -20.6936 H   0  0  0  0  0  0  0  0  0  0  0  0
  -13.5044   -3.6234  -23.1173 H   0  0  0  0  0  0  0  0  0  0  0  0
   -8.5817   -1.2279  -24.1960 H   0  0  0  0  0  0  0  0  0  0  0  0
   -9.9090   -0.2991  -23.5444 H   0  0  0  0  0  0  0  0  0  0  0  0
   -6.3084   -2.4146  -22.7545 H   0  0  0  0  0  0  0  0  0  0  0  0
   -6.4194   -3.2899  -21.2165 H   0  0  0  0  0  0  0  0  0  0  0  0
   -8.4591   -4.0609  -21.5623 H   0  0  0  0  0  0  0  0  0  0  0  0
   -9.1610   -4.4519  -23.9645 H   0  0  0  0  0  0  0  0  0  0  0  0
   -7.5245   -4.9190  -23.5105 H   0  0  0  0  0  0  0  0  0  0  0  0
   -7.7797   -3.4559  -24.4703 H   0  0  0  0  0  0  0  0  0  0  0  0
  1  2  1  0
  2  3  1  0
  3  4  1  0
  4  5  1  0
  5  6  2  0
  6  7  1  0
  7  8  2  0
  8  9  1  0
  9 10  2  0
 10 11  1  0
 11 12  2  0
 12 13  1  0
 13 14  2  0
 13 15  1  0
 12 16  1  0
 11 17  1  0
 10 18  1  0
  8 19  1  0
  6 20  1  0
  4 21  1  0
 21 22  2  0
 21 23  1  0
 23 24  1  6
 24 25  1  0
 25 26  1  0
 26 27  1  0
 27 28  2  0
 27 29  1  0
 29 30  1  0
 30 31  1  0
 31 32  1  0
 32 33  1  0
 33 34  1  0
 33 35  1  0
 32 36  1  0
 32 37  1  0
 31 38  1  0
 30 39  1  0
 30 40  1  0
 29 41  1  0
 26 42  1  0
 26 43  1  0
 25 44  1  0
 44 45  2  0
 44 46  1  0
 46 47  2  0
 47 48  1  0
 48 49  2  0
 49 50  1  0
 49 51  1  0
 51 52  2  0
 51 53  1  0
 48 54  1  0
 47 55  1  0
 24 56  1  0
 24 57  1  0
  3 58  1  0
  3 59  1  0
  2 60  1  1
  1 61  1  0
  1 62  1  0
  1 63  1  0
 23  2  1  0
 33 31  1  0
 52 46  1  0
 14  5  1  0
 52 23  1  0
 14  9  1  0
M  END
>  <cnnaffinities>  (22) 
[5.75925]

>  <score>  (22) 
5.75925

>  <index>  (22) 
21

>  <Smiles>  (22) 
C([C@]1(C(N(c2c(nc(c3c(c(c(c(c23)[H])[H])[H])[H])[H])[H])C(=O)[C@]21C(N(C(C(=O)N(C(C1(C(C1([H])[H])([H])[H])[H])([H])[H])[H])([H])[H])C(=O)c1c(c(c(F)c(c21)[H])[H])[H])([H])[H])([H])[H])[H])([H])([H])[H]

>  <h>  (22) 
<NA>

>  <Training>  (22) 
True

>  <Success>  (22) 
True

>  <enamine_searched>  (22) 
False

>  <enamine_id>  (22) 
nan

$$$$

     RDKit          3D

 68 73  0  0  0  0  0  0  0  0999 V2000
   -7.3728    3.4726  -21.9201 C   0  0  0  0  0  0  0  0  0  0  0  0
   -8.3123    2.9952  -22.9210 N   0  0  0  0  0  0  0  0  0  0  0  0
   -7.8079    2.2442  -23.9388 C   0  0  0  0  0  0  0  0  0  0  0  0
   -6.6144    2.0216  -24.0585 O   0  0  0  0  0  0  0  0  0  0  0  0
   -8.8270    1.6602  -24.9155 C   0  0  0  0  0  0  0  0  0  0  0  0
   -9.4919    0.5323  -24.2872 N   0  0  0  0  0  0  0  0  0  0  0  0
   -8.7421   -0.7126  -24.1529 C   0  0  0  0  0  0  0  0  0  0  0  0
   -9.1307   -1.4755  -22.8605 C   0  0  2  0  0  0  0  0  0  0  0  0
   -8.5684   -0.7116  -21.6368 C   0  0  0  0  0  0  0  0  0  0  0  0
   -9.0051    0.3053  -21.1330 O   0  0  0  0  0  0  0  0  0  0  0  0
   -7.4362   -1.3619  -21.2056 N   0  0  0  0  0  0  0  0  0  0  0  0
   -6.6372   -0.7914  -20.1819 C   0  0  0  0  0  0  0  0  0  0  0  0
   -6.9398   -1.0518  -18.8715 C   0  0  0  0  0  0  0  0  0  0  0  0
   -6.2446   -0.5740  -17.8121 N   0  0  0  0  0  0  0  0  0  0  0  0
   -5.2085    0.1875  -18.0701 C   0  0  0  0  0  0  0  0  0  0  0  0
   -4.7986    0.5593  -19.3816 C   0  0  0  0  0  0  0  0  0  0  0  0
   -3.6716    1.3905  -19.6099 C   0  0  0  0  0  0  0  0  0  0  0  0
   -3.3366    1.7737  -20.8786 C   0  0  0  0  0  0  0  0  0  0  0  0
   -4.1261    1.3695  -21.9775 C   0  0  0  0  0  0  0  0  0  0  0  0
   -5.2077    0.5396  -21.7877 C   0  0  0  0  0  0  0  0  0  0  0  0
   -5.5585    0.0946  -20.4834 C   0  0  0  0  0  0  0  0  0  0  0  0
   -5.8118    0.2521  -22.6435 H   0  0  0  0  0  0  0  0  0  0  0  0
   -3.8811    1.7177  -22.9776 H   0  0  0  0  0  0  0  0  0  0  0  0
   -2.4590    2.3921  -21.0473 H   0  0  0  0  0  0  0  0  0  0  0  0
   -3.0958    1.7208  -18.7487 H   0  0  0  0  0  0  0  0  0  0  0  0
   -4.6364    0.5585  -17.2182 H   0  0  0  0  0  0  0  0  0  0  0  0
   -7.7978   -1.6806  -18.6457 H   0  0  0  0  0  0  0  0  0  0  0  0
   -7.1063   -2.5512  -21.9692 C   0  0  0  0  0  0  0  0  0  0  0  0
   -8.3947   -2.8459  -22.7465 C   0  0  2  0  0  0  0  0  0  0  0  0
   -8.1037   -3.6043  -24.0409 C   0  0  0  0  0  0  0  0  0  0  0  0
   -9.3107   -3.9921  -24.7176 N   0  0  0  0  0  0  0  0  0  0  0  0
   -9.3016   -4.6020  -25.9550 C   0  0  0  0  0  0  0  0  0  0  0  0
  -10.5233   -4.8909  -26.5813 C   0  0  0  0  0  0  0  0  0  0  0  0
  -10.5638   -5.5033  -27.8246 C   0  0  0  0  0  0  0  0  0  0  0  0
   -9.3891   -5.8454  -28.4889 C   0  0  0  0  0  0  0  0  0  0  0  0
   -8.1718   -5.5740  -27.8729 C   0  0  0  0  0  0  0  0  0  0  0  0
   -8.1172   -4.9646  -26.6216 C   0  0  0  0  0  0  0  0  0  0  0  0
   -7.1452   -4.7811  -26.1729 H   0  0  0  0  0  0  0  0  0  0  0  0
   -7.2458   -5.8478  -28.3789 H   0  0  0  0  0  0  0  0  0  0  0  0
   -9.4247   -6.3238  -29.4649 H   0  0  0  0  0  0  0  0  0  0  0  0
  -11.5258   -5.7241  -28.2828 H   0  0  0  0  0  0  0  0  0  0  0  0
  -11.4455   -4.6367  -26.0700 H   0  0  0  0  0  0  0  0  0  0  0  0
  -10.2106   -3.6907  -24.3727 H   0  0  0  0  0  0  0  0  0  0  0  0
   -7.5198   -4.5040  -23.7981 H   0  0  0  0  0  0  0  0  0  0  0  0
   -7.4697   -2.9842  -24.7005 H   0  0  0  0  0  0  0  0  0  0  0  0
   -9.0111   -3.4992  -22.1201 H   0  0  0  0  0  0  0  0  0  0  0  0
   -6.8345   -3.3825  -21.3120 H   0  0  0  0  0  0  0  0  0  0  0  0
   -6.2635   -2.3784  -22.6572 H   0  0  0  0  0  0  0  0  0  0  0  0
  -10.6434   -1.5425  -22.7713 C   0  0  0  0  0  0  0  0  0  0  0  0
  -11.2690   -2.4755  -21.9367 C   0  0  0  0  0  0  0  0  0  0  0  0
  -12.6427   -2.4758  -21.7853 C   0  0  0  0  0  0  0  0  0  0  0  0
  -13.3577   -3.6027  -20.6714 Cl  0  0  0  0  0  0  0  0  0  0  0  0
  -13.4502   -1.5616  -22.4587 C   0  0  0  0  0  0  0  0  0  0  0  0
  -12.8403   -0.6149  -23.2572 C   0  0  0  0  0  0  0  0  0  0  0  0
  -11.4538   -0.5825  -23.3958 C   0  0  0  0  0  0  0  0  0  0  0  0
  -10.8551    0.5556  -24.1661 C   0  0  0  0  0  0  0  0  0  0  0  0
  -11.5453    1.4590  -24.6229 O   0  0  0  0  0  0  0  0  0  0  0  0
  -13.4154    0.1439  -23.7753 H   0  0  0  0  0  0  0  0  0  0  0  0
  -14.5274   -1.5839  -22.3382 H   0  0  0  0  0  0  0  0  0  0  0  0
  -10.7061   -3.1941  -21.3542 H   0  0  0  0  0  0  0  0  0  0  0  0
   -7.6703   -0.4851  -24.1415 H   0  0  0  0  0  0  0  0  0  0  0  0
   -8.9359   -1.3536  -25.0241 H   0  0  0  0  0  0  0  0  0  0  0  0
   -8.3230    1.3343  -25.8328 H   0  0  0  0  0  0  0  0  0  0  0  0
   -9.5926    2.3923  -25.1893 H   0  0  0  0  0  0  0  0  0  0  0  0
   -9.2507    2.7780  -22.6087 H   0  0  0  0  0  0  0  0  0  0  0  0
   -6.9055    2.6193  -21.4088 H   0  0  0  0  0  0  0  0  0  0  0  0
   -7.8857    4.1296  -21.2164 H   0  0  0  0  0  0  0  0  0  0  0  0
   -6.5928    4.0596  -22.4116 H   0  0  0  0  0  0  0  0  0  0  0  0
  1  2  1  0
  2  3  1  0
  3  4  2  0
  3  5  1  0
  5  6  1  0
  6  7  1  0
  8  7  1  6
  8  9  1  0
  9 10  2  0
  9 11  1  0
 11 12  1  0
 12 13  2  0
 13 14  1  0
 14 15  2  0
 15 16  1  0
 16 17  2  0
 17 18  1  0
 18 19  2  0
 19 20  1  0
 20 21  2  0
 20 22  1  0
 19 23  1  0
 18 24  1  0
 17 25  1  0
 15 26  1  0
 13 27  1  0
 11 28  1  0
 28 29  1  0
 29 30  1  0
 30 31  1  0
 31 32  1  0
 32 33  2  0
 33 34  1  0
 34 35  2  0
 35 36  1  0
 36 37  2  0
 37 38  1  0
 36 39  1  0
 35 40  1  0
 34 41  1  0
 33 42  1  0
 31 43  1  0
 30 44  1  0
 30 45  1  0
 29 46  1  1
 28 47  1  0
 28 48  1  0
  8 49  1  0
 49 50  2  0
 50 51  1  0
 51 52  1  0
 51 53  2  0
 53 54  1  0
 54 55  2  0
 55 56  1  0
 56 57  2  0
 54 58  1  0
 53 59  1  0
 50 60  1  0
  7 61  1  0
  7 62  1  0
  5 63  1  0
  5 64  1  0
  2 65  1  0
  1 66  1  0
  1 67  1  0
  1 68  1  0
 56  6  1  0
 29  8  1  0
 37 32  1  0
 55 49  1  0
 21 12  1  0
 21 16  1  0
M  END
>  <cnnaffinities>  (23) 
[5.68816]

>  <score>  (23) 
5.68816

>  <index>  (23) 
23

>  <Smiles>  (23) 
C(N(C(=O)C(N1C([C@@]2(C(=O)N(c3c(nc(c4c(c(c(c(c34)[H])[H])[H])[H])[H])[H])C([C@@]2(C(N(c2c(c(c(c(c2[H])[H])[H])[H])[H])[H])([H])[H])[H])([H])[H])c2c(c(Cl)c(c(c2C1=O)[H])[H])[H])([H])[H])([H])[H])[H])([H])([H])[H]

>  <h>  (23) 
<NA>

>  <Training>  (23) 
True

>  <Success>  (23) 
True

>  <enamine_searched>  (23) 
False

>  <enamine_id>  (23) 
nan

$$$$

     RDKit          3D

 65 70  0  0  0  0  0  0  0  0999 V2000
   -9.1892    2.3559  -26.4411 O   0  0  0  0  0  0  0  0  0  0  0  0
   -9.3940    1.2492  -26.9111 C   0  0  0  0  0  0  0  0  0  0  0  0
   -8.6665    0.0176  -26.3764 C   0  0  0  0  0  0  0  0  0  0  0  0
   -9.1854   -0.3815  -25.0542 N   0  0  1  0  0  4  0  0  0  0  0  0
  -10.6539   -0.6449  -25.1186 C   0  0  0  0  0  0  0  0  0  0  0  0
  -11.2111   -1.1169  -23.8021 C   0  0  0  0  0  0  0  0  0  0  0  0
  -12.5626   -0.9348  -23.5162 C   0  0  0  0  0  0  0  0  0  0  0  0
  -13.1924   -1.6829  -22.5313 C   0  0  0  0  0  0  0  0  0  0  0  0
  -12.4237   -2.5840  -21.7989 C   0  0  0  0  0  0  0  0  0  0  0  0
  -13.2505   -3.6189  -20.6693 Cl  0  0  0  0  0  0  0  0  0  0  0  0
  -11.0573   -2.6973  -21.9882 C   0  0  0  0  0  0  0  0  0  0  0  0
  -10.4225   -1.9061  -22.9568 C   0  0  0  0  0  0  0  0  0  0  0  0
   -8.9111   -1.8870  -23.1247 C   0  0  2  0  0  0  0  0  0  0  0  0
   -8.2114   -3.1316  -22.5815 C   0  0  0  0  0  0  0  0  0  0  0  0
   -7.5731   -2.7191  -21.2531 C   0  0  0  0  0  0  0  0  0  0  0  0
   -7.4925   -1.2598  -21.3144 N   0  0  0  0  0  0  0  0  0  0  0  0
   -6.7444   -0.6021  -20.3000 C   0  0  0  0  0  0  0  0  0  0  0  0
   -6.9749   -0.9884  -18.9982 C   0  0  0  0  0  0  0  0  0  0  0  0
   -6.2902   -0.5703  -17.9109 N   0  0  0  0  0  0  0  0  0  0  0  0
   -5.2755    0.2310  -18.1162 C   0  0  0  0  0  0  0  0  0  0  0  0
   -4.8744    0.6733  -19.4065 C   0  0  0  0  0  0  0  0  0  0  0  0
   -3.7126    1.4779  -19.5630 C   0  0  0  0  0  0  0  0  0  0  0  0
   -3.3410    1.9231  -20.8005 C   0  0  0  0  0  0  0  0  0  0  0  0
   -4.1172    1.5882  -21.9306 C   0  0  0  0  0  0  0  0  0  0  0  0
   -5.2445    0.8067  -21.8077 C   0  0  0  0  0  0  0  0  0  0  0  0
   -5.6449    0.2978  -20.5387 C   0  0  0  0  0  0  0  0  0  0  0  0
   -5.8611    0.6182  -22.6758 H   0  0  0  0  0  0  0  0  0  0  0  0
   -3.8285    1.9724  -22.9056 H   0  0  0  0  0  0  0  0  0  0  0  0
   -2.4643    2.5563  -20.9214 H   0  0  0  0  0  0  0  0  0  0  0  0
   -3.1341    1.7279  -18.6761 H   0  0  0  0  0  0  0  0  0  0  0  0
   -4.7132    0.5527  -17.2387 H   0  0  0  0  0  0  0  0  0  0  0  0
   -7.7859   -1.6800  -18.7857 H   0  0  0  0  0  0  0  0  0  0  0  0
   -8.2336   -0.7391  -22.3471 C   0  0  0  0  0  0  0  0  0  0  0  0
   -8.2866    0.4261  -22.7132 O   0  0  0  0  0  0  0  0  0  0  0  0
   -8.1770   -3.0279  -20.3941 H   0  0  0  0  0  0  0  0  0  0  0  0
   -6.5638   -3.1219  -21.1258 H   0  0  0  0  0  0  0  0  0  0  0  0
   -7.4372   -3.4639  -23.2790 H   0  0  0  0  0  0  0  0  0  0  0  0
   -8.9101   -3.9599  -22.4657 H   0  0  0  0  0  0  0  0  0  0  0  0
   -8.5318   -1.6329  -24.5886 C   0  0  0  0  0  0  0  0  0  0  0  0
   -8.8243   -2.4754  -25.2296 H   0  0  0  0  0  0  0  0  0  0  0  0
   -7.4468   -1.5272  -24.6599 H   0  0  0  0  0  0  0  0  0  0  0  0
  -10.4953   -3.3867  -21.3586 H   0  0  0  0  0  0  0  0  0  0  0  0
  -14.2607   -1.6087  -22.3492 H   0  0  0  0  0  0  0  0  0  0  0  0
  -13.1583   -0.2385  -24.1010 H   0  0  0  0  0  0  0  0  0  0  0  0
  -10.8209   -1.4304  -25.8772 H   0  0  0  0  0  0  0  0  0  0  0  0
  -11.1715    0.2538  -25.4490 H   0  0  0  0  0  0  0  0  0  0  0  0
   -8.9851    0.3499  -24.3299 H   0  0  0  0  0  0  0  0  0  0  0  0
   -7.5995    0.2454  -26.3014 H   0  0  0  0  0  0  0  0  0  0  0  0
   -8.7941   -0.8283  -27.0633 H   0  0  0  0  0  0  0  0  0  0  0  0
  -10.2936    1.0118  -27.9123 N   0  0  0  0  0  0  0  0  0  0  0  0
  -10.9518    2.0968  -28.6147 C   0  0  0  0  0  0  0  0  0  0  0  0
  -10.1079    2.7006  -29.7304 C   0  0  1  0  0  0  0  0  0  0  0  0
   -9.9498    1.8113  -30.9933 C   0  0  0  0  0  0  0  0  0  0  0  0
  -10.6526    2.8966  -31.8316 C   0  0  1  0  0  0  0  0  0  0  0  0
  -11.8551    2.4703  -32.3774 F   0  0  0  0  0  0  0  0  0  0  0  0
  -10.8432    3.7705  -30.5766 C   0  0  0  0  0  0  0  0  0  0  0  0
  -10.3743    4.7598  -30.6107 H   0  0  0  0  0  0  0  0  0  0  0  0
  -11.8986    3.9015  -30.3097 H   0  0  0  0  0  0  0  0  0  0  0  0
  -10.0596    3.3353  -32.6459 H   0  0  0  0  0  0  0  0  0  0  0  0
  -10.5196    0.8744  -30.9719 H   0  0  0  0  0  0  0  0  0  0  0  0
   -8.9174    1.5858  -31.2828 H   0  0  0  0  0  0  0  0  0  0  0  0
   -9.1476    3.0596  -29.3493 H   0  0  0  0  0  0  0  0  0  0  0  0
  -11.2063    2.8719  -27.8853 H   0  0  0  0  0  0  0  0  0  0  0  0
  -11.8780    1.7163  -29.0619 H   0  0  0  0  0  0  0  0  0  0  0  0
  -10.4076    0.0665  -28.2451 H   0  0  0  0  0  0  0  0  0  0  0  0
  1  2  2  0
  2  3  1  0
  3  4  1  0
  4  5  1  0
  5  6  1  0
  6  7  2  0
  7  8  1  0
  8  9  2  0
  9 10  1  0
  9 11  1  0
 11 12  2  0
 12 13  1  0
 13 14  1  1
 14 15  1  0
 15 16  1  0
 16 17  1  0
 17 18  2  0
 18 19  1  0
 19 20  2  0
 20 21  1  0
 21 22  2  0
 22 23  1  0
 23 24  2  0
 24 25  1  0
 25 26  2  0
 25 27  1  0
 24 28  1  0
 23 29  1  0
 22 30  1  0
 20 31  1  0
 18 32  1  0
 16 33  1  0
 33 34  2  0
 15 35  1  0
 15 36  1  0
 14 37  1  0
 14 38  1  0
 13 39  1  0
 39 40  1  0
 39 41  1  0
 11 42  1  0
  8 43  1  0
  7 44  1  0
  5 45  1  0
  5 46  1  0
  4 47  1  1
  3 48  1  0
  3 49  1  0
  2 50  1  0
 50 51  1  0
 51 52  1  0
 52 53  1  0
 53 54  1  0
 54 55  1  0
 54 56  1  0
 56 57  1  0
 56 58  1  0
 54 59  1  6
 53 60  1  0
 53 61  1  0
 52 62  1  1
 51 63  1  0
 51 64  1  0
 50 65  1  0
 39  4  1  0
 56 52  1  0
 12  6  1  0
 33 13  1  0
 26 17  1  0
 26 21  1  0
M  CHG  1   4   1
M  END
>  <cnnaffinities>  (24) 
[5.10676]

>  <score>  (24) 
5.10676

>  <index>  (24) 
24

>  <Smiles>  (24) 
O=C(C([N@+]1(C(c2c(c(c(Cl)c(c2[C@@]2(C(C(N(c3c(nc(c4c(c(c(c(c34)[H])[H])[H])[H])[H])[H])C2=O)([H])[H])([H])[H])C1([H])[H])[H])[H])[H])([H])[H])[H])([H])[H])N(C([C@]1(C([C@@](F)(C1([H])[H])[H])([H])[H])[H])([H])[H])[H]

>  <h>  (24) 
<NA>

>  <Training>  (24) 
True

>  <Success>  (24) 
True

>  <enamine_searched>  (24) 
False

>  <enamine_id>  (24) 
nan

$$$$

     RDKit          3D

 70 75  0  0  0  0  0  0  0  0999 V2000
   -8.1615   -7.1752  -23.9008 O   0  0  0  0  0  0  0  0  0  0  0  0
   -8.0888   -6.4005  -22.9693 C   0  0  0  0  0  0  0  0  0  0  0  0
   -9.2086   -5.4211  -22.6215 C   0  0  0  0  0  0  0  0  0  0  0  0
   -8.8165   -3.9941  -22.8741 N   0  0  1  0  0  4  0  0  0  0  0  0
   -8.4518   -3.7943  -24.3556 C   0  0  0  0  0  0  0  0  0  0  0  0
   -8.1483   -2.3496  -24.6717 C   0  0  0  0  0  0  0  0  0  0  0  0
   -7.3554   -2.0224  -25.7748 C   0  0  0  0  0  0  0  0  0  0  0  0
   -7.0787   -0.6985  -26.0979 C   0  0  0  0  0  0  0  0  0  0  0  0
   -7.6063    0.3167  -25.3068 C   0  0  0  0  0  0  0  0  0  0  0  0
   -7.2605    1.9880  -25.6683 Cl  0  0  0  0  0  0  0  0  0  0  0  0
   -8.3894    0.0146  -24.2052 C   0  0  0  0  0  0  0  0  0  0  0  0
   -8.6604   -1.3179  -23.8857 C   0  0  0  0  0  0  0  0  0  0  0  0
   -9.4384   -1.5569  -22.6158 C   0  0  2  0  0  0  0  0  0  0  0  0
   -8.6772   -0.9644  -21.4303 C   0  0  0  0  0  0  0  0  0  0  0  0
   -9.1459   -0.0583  -20.7694 O   0  0  0  0  0  0  0  0  0  0  0  0
   -7.4012   -1.4511  -21.2129 N   0  0  0  0  0  0  0  0  0  0  0  0
   -6.5994   -0.8559  -20.2011 C   0  0  0  0  0  0  0  0  0  0  0  0
   -6.9145   -1.0878  -18.8888 C   0  0  0  0  0  0  0  0  0  0  0  0
   -6.2288   -0.5912  -17.8298 N   0  0  0  0  0  0  0  0  0  0  0  0
   -5.2001    0.1804  -18.0856 C   0  0  0  0  0  0  0  0  0  0  0  0
   -4.7805    0.5264  -19.4016 C   0  0  0  0  0  0  0  0  0  0  0  0
   -3.6626    1.3673  -19.6224 C   0  0  0  0  0  0  0  0  0  0  0  0
   -3.3179    1.7414  -20.8904 C   0  0  0  0  0  0  0  0  0  0  0  0
   -4.0928    1.3168  -21.9926 C   0  0  0  0  0  0  0  0  0  0  0  0
   -5.1686    0.4798  -21.8100 C   0  0  0  0  0  0  0  0  0  0  0  0
   -5.5164    0.0345  -20.5041 C   0  0  0  0  0  0  0  0  0  0  0  0
   -5.7414    0.1533  -22.6737 H   0  0  0  0  0  0  0  0  0  0  0  0
   -3.8177    1.6443  -22.9921 H   0  0  0  0  0  0  0  0  0  0  0  0
   -2.4540    2.3779  -21.0580 H   0  0  0  0  0  0  0  0  0  0  0  0
   -3.1090    1.7218  -18.7584 H   0  0  0  0  0  0  0  0  0  0  0  0
   -4.6492    0.5855  -17.2337 H   0  0  0  0  0  0  0  0  0  0  0  0
   -7.7717   -1.7135  -18.6516 H   0  0  0  0  0  0  0  0  0  0  0  0
   -6.9425   -1.9180  -21.9846 H   0  0  0  0  0  0  0  0  0  0  0  0
   -9.8930   -3.0048  -22.4746 C   0  0  0  0  0  0  0  0  0  0  0  0
  -10.2279   -3.2212  -21.4601 H   0  0  0  0  0  0  0  0  0  0  0  0
  -10.7399   -3.1322  -23.1537 H   0  0  0  0  0  0  0  0  0  0  0  0
  -10.3361   -0.9354  -22.6379 H   0  0  0  0  0  0  0  0  0  0  0  0
   -8.7857    0.8075  -23.5760 H   0  0  0  0  0  0  0  0  0  0  0  0
   -6.4557   -0.4496  -26.9512 H   0  0  0  0  0  0  0  0  0  0  0  0
   -6.9378   -2.8085  -26.4010 H   0  0  0  0  0  0  0  0  0  0  0  0
   -9.2986   -4.1597  -24.9489 H   0  0  0  0  0  0  0  0  0  0  0  0
   -7.5969   -4.4314  -24.5857 H   0  0  0  0  0  0  0  0  0  0  0  0
   -7.9715   -3.7885  -22.3033 H   0  0  0  0  0  0  0  0  0  0  0  0
  -10.0765   -5.6818  -23.2321 H   0  0  0  0  0  0  0  0  0  0  0  0
   -9.4687   -5.5424  -21.5660 H   0  0  0  0  0  0  0  0  0  0  0  0
   -6.9854   -6.3039  -22.1528 N   0  0  0  0  0  0  0  0  0  0  0  0
   -5.7769   -6.9852  -22.4014 C   0  0  0  0  0  0  0  0  0  0  0  0
   -5.0072   -7.4637  -21.3443 C   0  0  0  0  0  0  0  0  0  0  0  0
   -3.7951   -8.0764  -21.6113 C   0  0  0  0  0  0  0  0  0  0  0  0
   -3.3069   -8.2106  -22.9096 C   0  0  0  0  0  0  0  0  0  0  0  0
   -2.0756   -8.8778  -23.1459 N   0  0  0  0  0  0  0  0  0  0  0  0
   -1.0188   -8.8024  -22.1275 C   0  0  0  0  0  0  0  0  0  0  0  0
    0.3001   -9.1833  -22.7794 C   0  0  0  0  0  0  0  0  0  0  0  0
    0.1816  -10.4907  -23.3008 O   0  0  0  0  0  0  0  0  0  0  0  0
   -0.6859  -10.5165  -24.4020 C   0  0  0  0  0  0  0  0  0  0  0  0
   -1.9876   -9.7491  -24.2139 C   0  0  0  0  0  0  0  0  0  0  0  0
   -2.8849   -9.9315  -25.0224 O   0  0  0  0  0  0  0  0  0  0  0  0
   -0.9639  -11.5520  -24.6163 H   0  0  0  0  0  0  0  0  0  0  0  0
   -0.1931  -10.1332  -25.3074 H   0  0  0  0  0  0  0  0  0  0  0  0
    1.1024   -9.2164  -22.0398 H   0  0  0  0  0  0  0  0  0  0  0  0
    0.5644   -8.4714  -23.5780 H   0  0  0  0  0  0  0  0  0  0  0  0
   -0.9792   -7.7880  -21.7085 H   0  0  0  0  0  0  0  0  0  0  0  0
   -1.2110   -9.5123  -21.3086 H   0  0  0  0  0  0  0  0  0  0  0  0
   -4.0810   -7.7233  -23.9572 C   0  0  0  0  0  0  0  0  0  0  0  0
   -5.3117   -7.1479  -23.7052 C   0  0  0  0  0  0  0  0  0  0  0  0
   -5.9114   -6.8349  -24.5493 H   0  0  0  0  0  0  0  0  0  0  0  0
   -3.7631   -7.8489  -24.9821 H   0  0  0  0  0  0  0  0  0  0  0  0
   -3.2297   -8.5314  -20.8002 H   0  0  0  0  0  0  0  0  0  0  0  0
   -5.3656   -7.4045  -20.3191 H   0  0  0  0  0  0  0  0  0  0  0  0
   -7.0791   -5.8785  -21.2435 H   0  0  0  0  0  0  0  0  0  0  0  0
  1  2  2  0
  2  3  1  0
  3  4  1  0
  4  5  1  0
  5  6  1  0
  6  7  2  0
  7  8  1  0
  8  9  2  0
  9 10  1  0
  9 11  1  0
 11 12  2  0
 12 13  1  0
 13 14  1  0
 14 15  2  0
 14 16  1  0
 16 17  1  0
 17 18  2  0
 18 19  1  0
 19 20  2  0
 20 21  1  0
 21 22  2  0
 22 23  1  0
 23 24  2  0
 24 25  1  0
 25 26  2  0
 25 27  1  0
 24 28  1  0
 23 29  1  0
 22 30  1  0
 20 31  1  0
 18 32  1  0
 16 33  1  0
 13 34  1  0
 34 35  1  0
 34 36  1  0
 13 37  1  6
 11 38  1  0
  8 39  1  0
  7 40  1  0
  5 41  1  0
  5 42  1  0
  4 43  1  1
  3 44  1  0
  3 45  1  0
  2 46  1  0
 46 47  1  0
 47 48  2  0
 48 49  1  0
 49 50  2  0
 50 51  1  0
 51 52  1  0
 52 53  1  0
 53 54  1  0
 54 55  1  0
 55 56  1  0
 56 57  2  0
 55 58  1  0
 55 59  1  0
 53 60  1  0
 53 61  1  0
 52 62  1  0
 52 63  1  0
 50 64  1  0
 64 65  2  0
 65 66  1  0
 64 67  1  0
 49 68  1  0
 48 69  1  0
 46 70  1  0
 34  4  1  0
 65 47  1  0
 12  6  1  0
 26 17  1  0
 56 51  1  0
 26 21  1  0
M  CHG  1   4   1
M  END
>  <cnnaffinities>  (25) 
[6.19042, 5.99666]

>  <score>  (25) 
6.19042

>  <index>  (25) 
25

>  <Smiles>  (25) 
O=C(C([N@+]1(C(c2c(c(c(Cl)c(c2[C@](C(=O)N(c2c(nc(c3c(c(c(c(c23)[H])[H])[H])[H])[H])[H])[H])(C1([H])[H])[H])[H])[H])[H])([H])[H])[H])([H])[H])N(c1c(c(c(N2C(C(OC(C2=O)([H])[H])([H])[H])([H])[H])c(c1[H])[H])[H])[H])[H]

>  <h>  (25) 
<NA>

>  <Training>  (25) 
True

>  <Success>  (25) 
True

>  <enamine_searched>  (25) 
False

>  <enamine_id>  (25) 
nan

$$$$

     RDKit          3D

 55 60  0  0  0  0  0  0  0  0999 V2000
   -7.8806   -3.6213  -24.0833 C   0  0  0  0  0  0  0  0  0  0  0  0
   -8.2915   -2.8504  -22.8184 C   0  0  1  0  0  0  0  0  0  0  0  0
   -7.0927   -2.6215  -21.8721 C   0  0  0  0  0  0  0  0  0  0  0  0
   -7.4036   -1.3761  -21.1999 N   0  0  0  0  0  0  0  0  0  0  0  0
   -6.6112   -0.7960  -20.1731 C   0  0  0  0  0  0  0  0  0  0  0  0
   -6.9072   -1.0482  -18.8583 C   0  0  0  0  0  0  0  0  0  0  0  0
   -6.1990   -0.5598  -17.8109 N   0  0  0  0  0  0  0  0  0  0  0  0
   -5.1686    0.2077  -18.0741 C   0  0  0  0  0  0  0  0  0  0  0  0
   -4.7475    0.5567  -19.3892 C   0  0  0  0  0  0  0  0  0  0  0  0
   -3.6181    1.3882  -19.6266 C   0  0  0  0  0  0  0  0  0  0  0  0
   -3.2495    1.7161  -20.9023 C   0  0  0  0  0  0  0  0  0  0  0  0
   -4.0049    1.2349  -21.9925 C   0  0  0  0  0  0  0  0  0  0  0  0
   -5.0937    0.4113  -21.7858 C   0  0  0  0  0  0  0  0  0  0  0  0
   -5.5008    0.0567  -20.4753 C   0  0  0  0  0  0  0  0  0  0  0  0
   -5.6047   -0.0198  -22.6422 H   0  0  0  0  0  0  0  0  0  0  0  0
   -3.6832    1.4458  -23.0071 H   0  0  0  0  0  0  0  0  0  0  0  0
   -2.3561    2.3054  -21.0885 H   0  0  0  0  0  0  0  0  0  0  0  0
   -3.0674    1.7611  -18.7674 H   0  0  0  0  0  0  0  0  0  0  0  0
   -4.6235    0.6105  -17.2209 H   0  0  0  0  0  0  0  0  0  0  0  0
   -7.7554   -1.6742  -18.5942 H   0  0  0  0  0  0  0  0  0  0  0  0
   -8.4092   -0.6439  -21.7912 C   0  0  0  0  0  0  0  0  0  0  0  0
   -8.7679    0.4387  -21.3802 O   0  0  0  0  0  0  0  0  0  0  0  0
   -8.9497   -1.4422  -23.0134 C   0  0  1  0  0  0  0  0  0  0  0  0
   -8.4849   -0.8020  -24.3432 C   0  0  0  0  0  0  0  0  0  0  0  0
   -9.1438    0.4525  -24.6179 N   0  0  0  0  0  0  0  0  0  0  0  0
   -8.3524    1.6270  -24.9470 C   0  0  0  0  0  0  0  0  0  0  0  0
   -8.0508    2.4942  -23.7535 C   0  0  0  0  0  0  0  0  0  0  0  0
   -8.8802    3.4284  -23.1164 C   0  0  0  0  0  0  0  0  0  0  0  0
   -8.2161    3.9647  -22.0971 N   0  0  0  0  0  0  0  0  0  0  0  0
   -7.0540    3.3568  -22.1340 N   0  0  0  0  0  0  0  0  0  0  0  0
   -6.8804    2.4728  -23.1044 N   0  0  0  0  0  0  0  0  0  0  0  0
   -6.3765    3.5256  -21.4006 H   0  0  0  0  0  0  0  0  0  0  0  0
   -9.9096    3.7043  -23.3191 H   0  0  0  0  0  0  0  0  0  0  0  0
   -7.4067    1.3011  -25.3942 H   0  0  0  0  0  0  0  0  0  0  0  0
   -8.9224    2.2014  -25.6828 H   0  0  0  0  0  0  0  0  0  0  0  0
  -10.5033    0.5837  -24.5324 C   0  0  0  0  0  0  0  0  0  0  0  0
  -11.0968    1.5301  -25.0380 O   0  0  0  0  0  0  0  0  0  0  0  0
  -11.1940   -0.4793  -23.7355 C   0  0  0  0  0  0  0  0  0  0  0  0
  -12.5875   -0.4526  -23.6812 C   0  0  0  0  0  0  0  0  0  0  0  0
  -13.2775   -1.3125  -22.8504 C   0  0  0  0  0  0  0  0  0  0  0  0
  -12.5399   -2.1833  -22.0599 C   0  0  0  0  0  0  0  0  0  0  0  0
  -13.1904   -2.9849  -21.2022 F   0  0  0  0  0  0  0  0  0  0  0  0
  -11.1647   -2.2434  -22.1020 C   0  0  0  0  0  0  0  0  0  0  0  0
  -10.4656   -1.4201  -22.9904 C   0  0  0  0  0  0  0  0  0  0  0  0
  -10.6712   -2.9109  -21.4044 H   0  0  0  0  0  0  0  0  0  0  0  0
  -14.3591   -1.3403  -22.7946 H   0  0  0  0  0  0  0  0  0  0  0  0
  -13.0972    0.2697  -24.3057 H   0  0  0  0  0  0  0  0  0  0  0  0
   -7.4146   -0.5864  -24.2658 H   0  0  0  0  0  0  0  0  0  0  0  0
   -8.6663   -1.5092  -25.1686 H   0  0  0  0  0  0  0  0  0  0  0  0
   -6.1475   -2.5539  -22.4352 H   0  0  0  0  0  0  0  0  0  0  0  0
   -6.9669   -3.4277  -21.1410 H   0  0  0  0  0  0  0  0  0  0  0  0
   -9.0334   -3.4503  -22.2864 H   0  0  0  0  0  0  0  0  0  0  0  0
   -7.4912   -4.6150  -23.8299 H   0  0  0  0  0  0  0  0  0  0  0  0
   -7.0886   -3.0967  -24.6331 H   0  0  0  0  0  0  0  0  0  0  0  0
   -8.7180   -3.7639  -24.7760 H   0  0  0  0  0  0  0  0  0  0  0  0
  1  2  1  0
  2  3  1  0
  3  4  1  0
  4  5  1  0
  5  6  2  0
  6  7  1  0
  7  8  2  0
  8  9  1  0
  9 10  2  0
 10 11  1  0
 11 12  2  0
 12 13  1  0
 13 14  2  0
 13 15  1  0
 12 16  1  0
 11 17  1  0
 10 18  1  0
  8 19  1  0
  6 20  1  0
  4 21  1  0
 21 22  2  0
 21 23  1  0
 23 24  1  6
 24 25  1  0
 25 26  1  0
 26 27  1  0
 27 28  1  0
 28 29  2  0
 29 30  1  0
 30 31  1  0
 30 32  1  0
 28 33  1  0
 26 34  1  0
 26 35  1  0
 25 36  1  0
 36 37  2  0
 36 38  1  0
 38 39  2  0
 39 40  1  0
 40 41  2  0
 41 42  1  0
 41 43  1  0
 43 44  2  0
 43 45  1  0
 40 46  1  0
 39 47  1  0
 24 48  1  0
 24 49  1  0
  3 50  1  0
  3 51  1  0
  2 52  1  1
  1 53  1  0
  1 54  1  0
  1 55  1  0
 23  2  1  0
 31 27  2  0
 44 38  1  0
 14  5  1  0
 44 23  1  0
 14  9  1  0
M  END
>  <cnnaffinities>  (26) 
[5.24265, 5.39366]

>  <score>  (26) 
5.24265

>  <index>  (26) 
26

>  <Smiles>  (26) 
C([C@]1(C(N(c2c(nc(c3c(c(c(c(c23)[H])[H])[H])[H])[H])[H])C(=O)[C@]21C(N(C(c1c(nn(n1)[H])[H])([H])[H])C(=O)c1c(c(c(F)c(c21)[H])[H])[H])([H])[H])([H])[H])[H])([H])([H])[H]

>  <h>  (26) 
<NA>

>  <Training>  (26) 
True

>  <Success>  (26) 
True

>  <enamine_searched>  (26) 
False

>  <enamine_id>  (26) 
nan

$$$$

     RDKit          3D

 58 62  0  0  0  0  0  0  0  0999 V2000
   -7.0821    3.4785  -22.0409 C   0  0  0  0  0  0  0  0  0  0  0  0
   -7.4675    2.4214  -22.9781 N   0  0  0  0  0  4  0  0  0  0  0  0
   -8.4877    2.8128  -23.9731 C   0  0  0  0  0  0  0  0  0  0  0  0
   -8.7451    1.6810  -24.9660 C   0  0  0  0  0  0  0  0  0  0  0  0
   -9.3686    0.5355  -24.3192 N   0  0  0  0  0  0  0  0  0  0  0  0
   -8.6544   -0.7199  -24.1746 C   0  0  0  0  0  0  0  0  0  0  0  0
   -9.0365   -1.4496  -22.8643 C   0  0  2  0  0  0  0  0  0  0  0  0
   -8.4152   -0.6373  -21.7127 C   0  0  0  0  0  0  0  0  0  0  0  0
   -8.6418    0.5304  -21.4156 O   0  0  0  0  0  0  0  0  0  0  0  0
   -7.4150   -1.3692  -21.1477 N   0  0  0  0  0  0  0  0  0  0  0  0
   -6.6211   -0.7674  -20.1445 C   0  0  0  0  0  0  0  0  0  0  0  0
   -6.9212   -1.0321  -18.8345 C   0  0  0  0  0  0  0  0  0  0  0  0
   -6.2255   -0.5459  -17.7866 N   0  0  0  0  0  0  0  0  0  0  0  0
   -5.1952    0.2184  -18.0633 C   0  0  0  0  0  0  0  0  0  0  0  0
   -4.8057    0.5985  -19.3804 C   0  0  0  0  0  0  0  0  0  0  0  0
   -3.6953    1.4479  -19.6086 C   0  0  0  0  0  0  0  0  0  0  0  0
   -3.3719    1.8491  -20.8761 C   0  0  0  0  0  0  0  0  0  0  0  0
   -4.1696    1.4534  -21.9711 C   0  0  0  0  0  0  0  0  0  0  0  0
   -5.2335    0.5948  -21.7751 C   0  0  0  0  0  0  0  0  0  0  0  0
   -5.5734    0.1367  -20.4696 C   0  0  0  0  0  0  0  0  0  0  0  0
   -5.7976    0.2330  -22.6301 H   0  0  0  0  0  0  0  0  0  0  0  0
   -3.9193    1.8144  -22.9658 H   0  0  0  0  0  0  0  0  0  0  0  0
   -2.5034    2.4814  -21.0433 H   0  0  0  0  0  0  0  0  0  0  0  0
   -3.1194    1.7701  -18.7474 H   0  0  0  0  0  0  0  0  0  0  0  0
   -4.6220    0.5983  -17.2207 H   0  0  0  0  0  0  0  0  0  0  0  0
   -7.7718   -1.6715  -18.6106 H   0  0  0  0  0  0  0  0  0  0  0  0
   -7.0239   -2.5224  -21.9361 C   0  0  0  0  0  0  0  0  0  0  0  0
   -8.2937   -2.8157  -22.7406 C   0  0  2  0  0  0  0  0  0  0  0  0
   -8.0174   -3.5417  -24.0512 C   0  0  0  0  0  0  0  0  0  0  0  0
   -7.5575   -4.5178  -23.8652 H   0  0  0  0  0  0  0  0  0  0  0  0
   -8.9393   -3.6960  -24.6230 H   0  0  0  0  0  0  0  0  0  0  0  0
   -7.3261   -2.9676  -24.6806 H   0  0  0  0  0  0  0  0  0  0  0  0
   -8.9000   -3.4687  -22.1122 H   0  0  0  0  0  0  0  0  0  0  0  0
   -6.7295   -3.3578  -21.2963 H   0  0  0  0  0  0  0  0  0  0  0  0
   -6.1745   -2.3026  -22.6004 H   0  0  0  0  0  0  0  0  0  0  0  0
  -10.5488   -1.5267  -22.7710 C   0  0  0  0  0  0  0  0  0  0  0  0
  -11.2003   -2.5215  -22.0263 C   0  0  0  0  0  0  0  0  0  0  0  0
  -12.5764   -2.5219  -21.9320 C   0  0  0  0  0  0  0  0  0  0  0  0
  -13.1630   -3.4669  -21.1704 F   0  0  0  0  0  0  0  0  0  0  0  0
  -13.3654   -1.5724  -22.5762 C   0  0  0  0  0  0  0  0  0  0  0  0
  -12.7297   -0.5862  -23.3091 C   0  0  0  0  0  0  0  0  0  0  0  0
  -11.3366   -0.5418  -23.3887 C   0  0  0  0  0  0  0  0  0  0  0  0
  -10.7203    0.5958  -24.1429 C   0  0  0  0  0  0  0  0  0  0  0  0
  -11.3977    1.5238  -24.5771 O   0  0  0  0  0  0  0  0  0  0  0  0
  -13.2998    0.1744  -23.8337 H   0  0  0  0  0  0  0  0  0  0  0  0
  -14.4452   -1.6384  -22.4996 H   0  0  0  0  0  0  0  0  0  0  0  0
  -10.6633   -3.3012  -21.4999 H   0  0  0  0  0  0  0  0  0  0  0  0
   -8.8748   -1.3711  -25.0293 H   0  0  0  0  0  0  0  0  0  0  0  0
   -7.5790   -0.5101  -24.1516 H   0  0  0  0  0  0  0  0  0  0  0  0
   -7.8087    1.3472  -25.4265 H   0  0  0  0  0  0  0  0  0  0  0  0
   -9.4218    2.0128  -25.7577 H   0  0  0  0  0  0  0  0  0  0  0  0
   -9.4270    3.0418  -23.4626 H   0  0  0  0  0  0  0  0  0  0  0  0
   -8.1723    3.7132  -24.5118 H   0  0  0  0  0  0  0  0  0  0  0  0
   -6.6087    2.1402  -23.4839 H   0  0  0  0  0  0  0  0  0  0  0  0
   -7.8302    1.6159  -22.4309 H   0  0  0  0  0  0  0  0  0  0  0  0
   -6.2032    3.1717  -21.4700 H   0  0  0  0  0  0  0  0  0  0  0  0
   -7.8962    3.6905  -21.3444 H   0  0  0  0  0  0  0  0  0  0  0  0
   -6.8397    4.4084  -22.5649 H   0  0  0  0  0  0  0  0  0  0  0  0
  1  2  1  0
  2  3  1  0
  3  4  1  0
  4  5  1  0
  5  6  1  0
  7  6  1  6
  7  8  1  0
  8  9  2  0
  8 10  1  0
 10 11  1  0
 11 12  2  0
 12 13  1  0
 13 14  2  0
 14 15  1  0
 15 16  2  0
 16 17  1  0
 17 18  2  0
 18 19  1  0
 19 20  2  0
 19 21  1  0
 18 22  1  0
 17 23  1  0
 16 24  1  0
 14 25  1  0
 12 26  1  0
 10 27  1  0
 27 28  1  0
 28 29  1  0
 29 30  1  0
 29 31  1  0
 29 32  1  0
 28 33  1  1
 27 34  1  0
 27 35  1  0
  7 36  1  0
 36 37  2  0
 37 38  1  0
 38 39  1  0
 38 40  2  0
 40 41  1  0
 41 42  2  0
 42 43  1  0
 43 44  2  0
 41 45  1  0
 40 46  1  0
 37 47  1  0
  6 48  1  0
  6 49  1  0
  4 50  1  0
  4 51  1  0
  3 52  1  0
  3 53  1  0
  2 54  1  0
  2 55  1  0
  1 56  1  0
  1 57  1  0
  1 58  1  0
 43  5  1  0
 28  7  1  0
 42 36  1  0
 20 11  1  0
 20 15  1  0
M  CHG  1   2   1
M  END
>  <cnnaffinities>  (27) 
[5.11183]

>  <score>  (27) 
5.11183

>  <index>  (27) 
27

>  <Smiles>  (27) 
C([N+](C(C(N1C([C@@]2(C(=O)N(c3c(nc(c4c(c(c(c(c34)[H])[H])[H])[H])[H])[H])C([C@@]2(C([H])([H])[H])[H])([H])[H])c2c(c(F)c(c(c2C1=O)[H])[H])[H])([H])[H])([H])[H])([H])[H])([H])[H])([H])([H])[H]

>  <h>  (27) 
<NA>

>  <Training>  (27) 
True

>  <Success>  (27) 
True

>  <enamine_searched>  (27) 
False

>  <enamine_id>  (27) 
nan

$$$$

     RDKit          3D

 64 68  0  0  0  0  0  0  0  0999 V2000
   -7.9504    2.5294  -21.9948 C   0  0  0  0  0  0  0  0  0  0  0  0
   -8.8240    2.1708  -23.1033 N   0  0  0  0  0  0  0  0  0  0  0  0
   -8.3618    1.5614  -24.2227 C   0  0  0  0  0  0  0  0  0  0  0  0
   -7.1686    1.4130  -24.4674 O   0  0  0  0  0  0  0  0  0  0  0  0
   -9.4704    0.9482  -25.1008 C   0  0  0  0  0  0  0  0  0  0  0  0
  -10.0880   -0.1282  -24.3472 N   0  0  0  0  0  0  0  0  0  0  0  0
   -9.2808   -1.3068  -24.1102 C   0  0  0  0  0  0  0  0  0  0  0  0
   -9.4398   -1.8860  -22.6778 C   0  0  2  0  0  0  0  0  0  0  0  0
   -8.8860   -0.9388  -21.5851 C   0  0  0  0  0  0  0  0  0  0  0  0
   -9.5109   -0.0655  -21.0104 O   0  0  0  0  0  0  0  0  0  0  0  0
   -7.5686   -1.2620  -21.3396 N   0  0  0  0  0  0  0  0  0  0  0  0
   -6.8168   -0.7112  -20.2622 C   0  0  0  0  0  0  0  0  0  0  0  0
   -7.1213   -1.0325  -18.9591 C   0  0  0  0  0  0  0  0  0  0  0  0
   -6.3927   -0.6295  -17.8893 N   0  0  0  0  0  0  0  0  0  0  0  0
   -5.3434    0.1258  -18.1073 C   0  0  0  0  0  0  0  0  0  0  0  0
   -4.9252    0.5530  -19.4006 C   0  0  0  0  0  0  0  0  0  0  0  0
   -3.8203    1.4275  -19.5918 C   0  0  0  0  0  0  0  0  0  0  0  0
   -3.4871    1.8546  -20.8489 C   0  0  0  0  0  0  0  0  0  0  0  0
   -4.2103    1.4015  -21.9718 C   0  0  0  0  0  0  0  0  0  0  0  0
   -5.2536    0.5157  -21.8136 C   0  0  0  0  0  0  0  0  0  0  0  0
   -5.6661    0.1032  -20.5194 C   0  0  0  0  0  0  0  0  0  0  0  0
   -5.7841    0.1429  -22.6846 H   0  0  0  0  0  0  0  0  0  0  0  0
   -3.9445    1.7504  -22.9661 H   0  0  0  0  0  0  0  0  0  0  0  0
   -2.6655    2.5506  -20.9919 H   0  0  0  0  0  0  0  0  0  0  0  0
   -3.2692    1.7643  -18.7168 H   0  0  0  0  0  0  0  0  0  0  0  0
   -4.7599    0.4396  -17.2391 H   0  0  0  0  0  0  0  0  0  0  0  0
   -7.9721   -1.6725  -18.7284 H   0  0  0  0  0  0  0  0  0  0  0  0
   -7.1491   -2.4708  -22.0286 C   0  0  0  0  0  0  0  0  0  0  0  0
   -8.4920   -3.1039  -22.4728 C   0  0  2  0  0  0  0  0  0  0  0  0
   -8.3758   -4.0176  -23.6887 C   0  0  0  0  0  0  0  0  0  0  0  0
   -7.3142   -5.4359  -23.4729 S   0  0  0  0  0  0  0  0  0  0  0  0
   -6.0252   -5.0014  -22.9551 O   0  0  0  0  0  0  0  0  0  0  0  0
   -7.3677   -6.1971  -24.7134 O   0  0  0  0  0  0  0  0  0  0  0  0
   -8.0685   -6.3077  -22.2457 N   0  0  0  0  0  0  0  0  0  0  0  0
   -7.3311   -7.5386  -21.9114 C   0  0  0  0  0  0  0  0  0  0  0  0
   -7.2239   -8.2310  -22.7580 H   0  0  0  0  0  0  0  0  0  0  0  0
   -7.8671   -8.0146  -21.0898 H   0  0  0  0  0  0  0  0  0  0  0  0
   -6.3306   -7.2714  -21.5705 H   0  0  0  0  0  0  0  0  0  0  0  0
   -9.0264   -6.5307  -22.5226 H   0  0  0  0  0  0  0  0  0  0  0  0
   -9.3577   -4.3836  -24.0138 H   0  0  0  0  0  0  0  0  0  0  0  0
   -7.9169   -3.4950  -24.5348 H   0  0  0  0  0  0  0  0  0  0  0  0
   -8.8640   -3.6893  -21.6233 H   0  0  0  0  0  0  0  0  0  0  0  0
   -6.5813   -3.1195  -21.3580 H   0  0  0  0  0  0  0  0  0  0  0  0
   -6.5127   -2.2273  -22.8941 H   0  0  0  0  0  0  0  0  0  0  0  0
  -10.9259   -2.0521  -22.4561 C   0  0  0  0  0  0  0  0  0  0  0  0
  -11.4721   -3.0851  -21.6931 C   0  0  0  0  0  0  0  0  0  0  0  0
  -12.7990   -3.0125  -21.3044 C   0  0  0  0  0  0  0  0  0  0  0  0
  -13.4714   -4.2236  -20.2679 Cl  0  0  0  0  0  0  0  0  0  0  0  0
  -13.6247   -1.9532  -21.6741 C   0  0  0  0  0  0  0  0  0  0  0  0
  -13.1005   -0.9428  -22.4477 C   0  0  0  0  0  0  0  0  0  0  0  0
  -11.7740   -1.0071  -22.8596 C   0  0  0  0  0  0  0  0  0  0  0  0
  -11.2834    0.0916  -23.7399 C   0  0  0  0  0  0  0  0  0  0  0  0
  -11.9104    1.1358  -23.8927 O   0  0  0  0  0  0  0  0  0  0  0  0
  -13.6899   -0.0743  -22.7226 H   0  0  0  0  0  0  0  0  0  0  0  0
  -14.6559   -1.9359  -21.3442 H   0  0  0  0  0  0  0  0  0  0  0  0
  -10.8622   -3.9133  -21.3504 H   0  0  0  0  0  0  0  0  0  0  0  0
   -8.2365   -1.0369  -24.2993 H   0  0  0  0  0  0  0  0  0  0  0  0
   -9.5794   -2.0699  -24.8382 H   0  0  0  0  0  0  0  0  0  0  0  0
  -10.2713    1.6551  -25.3354 H   0  0  0  0  0  0  0  0  0  0  0  0
   -9.0405    0.5454  -26.0236 H   0  0  0  0  0  0  0  0  0  0  0  0
   -9.8136    2.0973  -22.8991 H   0  0  0  0  0  0  0  0  0  0  0  0
   -8.0436    1.8047  -21.1708 H   0  0  0  0  0  0  0  0  0  0  0  0
   -6.9223    2.5386  -22.3590 H   0  0  0  0  0  0  0  0  0  0  0  0
   -8.1947    3.5294  -21.6320 H   0  0  0  0  0  0  0  0  0  0  0  0
  1  2  1  0
  2  3  1  0
  3  4  2  0
  3  5  1  0
  5  6  1  0
  6  7  1  0
  8  7  1  6
  8  9  1  0
  9 10  2  0
  9 11  1  0
 11 12  1  0
 12 13  2  0
 13 14  1  0
 14 15  2  0
 15 16  1  0
 16 17  2  0
 17 18  1  0
 18 19  2  0
 19 20  1  0
 20 21  2  0
 20 22  1  0
 19 23  1  0
 18 24  1  0
 17 25  1  0
 15 26  1  0
 13 27  1  0
 11 28  1  0
 28 29  1  0
 29 30  1  0
 30 31  1  0
 31 32  2  0
 31 33  2  0
 31 34  1  0
 34 35  1  0
 35 36  1  0
 35 37  1  0
 35 38  1  0
 34 39  1  0
 30 40  1  0
 30 41  1  0
 29 42  1  1
 28 43  1  0
 28 44  1  0
  8 45  1  0
 45 46  2  0
 46 47  1  0
 47 48  1  0
 47 49  2  0
 49 50  1  0
 50 51  2  0
 51 52  1  0
 52 53  2  0
 50 54  1  0
 49 55  1  0
 46 56  1  0
  7 57  1  0
  7 58  1  0
  5 59  1  0
  5 60  1  0
  2 61  1  0
  1 62  1  0
  1 63  1  0
  1 64  1  0
 52  6  1  0
 29  8  1  0
 51 45  1  0
 21 12  1  0
 21 16  1  0
M  END
>  <cnnaffinities>  (28) 
[6.33764, 6.22417]

>  <score>  (28) 
6.33764

>  <index>  (28) 
28

>  <Smiles>  (28) 
C(N(C(=O)C(N1C([C@@]2(C(=O)N(c3c(nc(c4c(c(c(c(c34)[H])[H])[H])[H])[H])[H])C([C@@]2(C(S(=O)(=O)N(C([H])([H])[H])[H])([H])[H])[H])([H])[H])c2c(c(Cl)c(c(c2C1=O)[H])[H])[H])([H])[H])([H])[H])[H])([H])([H])[H]

>  <h>  (28) 
<NA>

>  <Training>  (28) 
True

>  <Success>  (28) 
True

>  <enamine_searched>  (28) 
False

>  <enamine_id>  (28) 
nan

$$$$

     RDKit          3D

 55 60  0  0  0  0  0  0  0  0999 V2000
   -7.8805   -3.6213  -24.0833 C   0  0  0  0  0  0  0  0  0  0  0  0
   -8.2915   -2.8504  -22.8184 C   0  0  1  0  0  0  0  0  0  0  0  0
   -7.0927   -2.6215  -21.8721 C   0  0  0  0  0  0  0  0  0  0  0  0
   -7.4036   -1.3761  -21.1999 N   0  0  0  0  0  0  0  0  0  0  0  0
   -6.6112   -0.7960  -20.1731 C   0  0  0  0  0  0  0  0  0  0  0  0
   -6.9072   -1.0482  -18.8583 C   0  0  0  0  0  0  0  0  0  0  0  0
   -6.1990   -0.5598  -17.8109 N   0  0  0  0  0  0  0  0  0  0  0  0
   -5.1686    0.2077  -18.0741 C   0  0  0  0  0  0  0  0  0  0  0  0
   -4.7474    0.5567  -19.3892 C   0  0  0  0  0  0  0  0  0  0  0  0
   -3.6181    1.3882  -19.6266 C   0  0  0  0  0  0  0  0  0  0  0  0
   -3.2495    1.7161  -20.9023 C   0  0  0  0  0  0  0  0  0  0  0  0
   -4.0049    1.2349  -21.9925 C   0  0  0  0  0  0  0  0  0  0  0  0
   -5.0937    0.4113  -21.7858 C   0  0  0  0  0  0  0  0  0  0  0  0
   -5.5008    0.0566  -20.4753 C   0  0  0  0  0  0  0  0  0  0  0  0
   -5.6047   -0.0198  -22.6422 H   0  0  0  0  0  0  0  0  0  0  0  0
   -3.6832    1.4458  -23.0071 H   0  0  0  0  0  0  0  0  0  0  0  0
   -2.3561    2.3054  -21.0885 H   0  0  0  0  0  0  0  0  0  0  0  0
   -3.0674    1.7611  -18.7674 H   0  0  0  0  0  0  0  0  0  0  0  0
   -4.6235    0.6105  -17.2209 H   0  0  0  0  0  0  0  0  0  0  0  0
   -7.7554   -1.6741  -18.5941 H   0  0  0  0  0  0  0  0  0  0  0  0
   -8.4092   -0.6439  -21.7912 C   0  0  0  0  0  0  0  0  0  0  0  0
   -8.7679    0.4387  -21.3802 O   0  0  0  0  0  0  0  0  0  0  0  0
   -8.9497   -1.4422  -23.0134 C   0  0  1  0  0  0  0  0  0  0  0  0
   -8.4849   -0.8020  -24.3432 C   0  0  0  0  0  0  0  0  0  0  0  0
   -9.1438    0.4525  -24.6179 N   0  0  0  0  0  0  0  0  0  0  0  0
   -8.3524    1.6270  -24.9470 C   0  0  0  0  0  0  0  0  0  0  0  0
   -8.0507    2.4942  -23.7535 C   0  0  0  0  0  0  0  0  0  0  0  0
   -8.8802    3.4284  -23.1164 C   0  0  0  0  0  0  0  0  0  0  0  0
   -8.2161    3.9647  -22.0971 N   0  0  0  0  0  0  0  0  0  0  0  0
   -7.0540    3.3568  -22.1340 N   0  0  0  0  0  0  0  0  0  0  0  0
   -6.8804    2.4728  -23.1044 N   0  0  0  0  0  0  0  0  0  0  0  0
   -6.3765    3.5256  -21.4006 H   0  0  0  0  0  0  0  0  0  0  0  0
   -9.9096    3.7043  -23.3191 H   0  0  0  0  0  0  0  0  0  0  0  0
   -7.4067    1.3011  -25.3942 H   0  0  0  0  0  0  0  0  0  0  0  0
   -8.9224    2.2014  -25.6828 H   0  0  0  0  0  0  0  0  0  0  0  0
  -10.5033    0.5837  -24.5324 C   0  0  0  0  0  0  0  0  0  0  0  0
  -11.0968    1.5301  -25.0380 O   0  0  0  0  0  0  0  0  0  0  0  0
  -11.1940   -0.4793  -23.7355 C   0  0  0  0  0  0  0  0  0  0  0  0
  -12.5875   -0.4526  -23.6812 C   0  0  0  0  0  0  0  0  0  0  0  0
  -13.2775   -1.3125  -22.8504 C   0  0  0  0  0  0  0  0  0  0  0  0
  -12.5399   -2.1833  -22.0599 C   0  0  0  0  0  0  0  0  0  0  0  0
  -13.1904   -2.9849  -21.2022 F   0  0  0  0  0  0  0  0  0  0  0  0
  -11.1647   -2.2434  -22.1020 C   0  0  0  0  0  0  0  0  0  0  0  0
  -10.4656   -1.4201  -22.9904 C   0  0  0  0  0  0  0  0  0  0  0  0
  -10.6712   -2.9109  -21.4044 H   0  0  0  0  0  0  0  0  0  0  0  0
  -14.3591   -1.3403  -22.7946 H   0  0  0  0  0  0  0  0  0  0  0  0
  -13.0972    0.2697  -24.3057 H   0  0  0  0  0  0  0  0  0  0  0  0
   -7.4146   -0.5864  -24.2658 H   0  0  0  0  0  0  0  0  0  0  0  0
   -8.6663   -1.5092  -25.1686 H   0  0  0  0  0  0  0  0  0  0  0  0
   -6.1475   -2.5539  -22.4352 H   0  0  0  0  0  0  0  0  0  0  0  0
   -6.9669   -3.4277  -21.1410 H   0  0  0  0  0  0  0  0  0  0  0  0
   -9.0334   -3.4503  -22.2864 H   0  0  0  0  0  0  0  0  0  0  0  0
   -7.4912   -4.6150  -23.8300 H   0  0  0  0  0  0  0  0  0  0  0  0
   -7.0886   -3.0967  -24.6331 H   0  0  0  0  0  0  0  0  0  0  0  0
   -8.7180   -3.7639  -24.7760 H   0  0  0  0  0  0  0  0  0  0  0  0
  1  2  1  0
  2  3  1  0
  3  4  1  0
  4  5  1  0
  5  6  2  0
  6  7  1  0
  7  8  2  0
  8  9  1  0
  9 10  2  0
 10 11  1  0
 11 12  2  0
 12 13  1  0
 13 14  2  0
 13 15  1  0
 12 16  1  0
 11 17  1  0
 10 18  1  0
  8 19  1  0
  6 20  1  0
  4 21  1  0
 21 22  2  0
 21 23  1  0
 23 24  1  6
 24 25  1  0
 25 26  1  0
 26 27  1  0
 27 28  1  0
 28 29  2  0
 29 30  1  0
 30 31  1  0
 30 32  1  0
 28 33  1  0
 26 34  1  0
 26 35  1  0
 25 36  1  0
 36 37  2  0
 36 38  1  0
 38 39  2  0
 39 40  1  0
 40 41  2  0
 41 42  1  0
 41 43  1  0
 43 44  2  0
 43 45  1  0
 40 46  1  0
 39 47  1  0
 24 48  1  0
 24 49  1  0
  3 50  1  0
  3 51  1  0
  2 52  1  1
  1 53  1  0
  1 54  1  0
  1 55  1  0
 23  2  1  0
 31 27  2  0
 44 38  1  0
 14  5  1  0
 44 23  1  0
 14  9  1  0
M  END
>  <cnnaffinities>  (29) 
[5.24265, 5.39365]

>  <score>  (29) 
5.24265

>  <index>  (29) 
29

>  <Smiles>  (29) 
C([C@]1(C(N(c2c(nc(c3c(c(c(c(c23)[H])[H])[H])[H])[H])[H])C(=O)[C@]21C(N(C(c1c(nn(n1)[H])[H])([H])[H])C(=O)c1c(c(c(F)c(c21)[H])[H])[H])([H])[H])([H])[H])[H])([H])([H])[H]

>  <h>  (29) 
<NA>

>  <Training>  (29) 
True

>  <Success>  (29) 
True

>  <enamine_searched>  (29) 
False

>  <enamine_id>  (29) 
nan

$$$$

     RDKit          3D

 58 63  0  0  0  0  0  0  0  0999 V2000
   -7.2721   -3.3787  -23.8820 C   0  0  0  0  0  0  0  0  0  0  0  0
   -8.2398   -2.8740  -22.8055 C   0  0  1  0  0  0  0  0  0  0  0  0
   -7.5589   -2.7626  -21.4233 C   0  0  0  0  0  0  0  0  0  0  0  0
   -7.3470   -1.3412  -21.2482 N   0  0  0  0  0  0  0  0  0  0  0  0
   -6.5975   -0.7835  -20.1931 C   0  0  0  0  0  0  0  0  0  0  0  0
   -6.8930   -1.0811  -18.8873 C   0  0  0  0  0  0  0  0  0  0  0  0
   -6.2168   -0.5922  -17.8196 N   0  0  0  0  0  0  0  0  0  0  0  0
   -5.2030    0.2060  -18.0647 C   0  0  0  0  0  0  0  0  0  0  0  0
   -4.7846    0.5815  -19.3747 C   0  0  0  0  0  0  0  0  0  0  0  0
   -3.6417    1.3908  -19.5908 C   0  0  0  0  0  0  0  0  0  0  0  0
   -3.2801    1.7525  -20.8601 C   0  0  0  0  0  0  0  0  0  0  0  0
   -4.0370    1.3250  -21.9703 C   0  0  0  0  0  0  0  0  0  0  0  0
   -5.1314    0.5192  -21.7891 C   0  0  0  0  0  0  0  0  0  0  0  0
   -5.5215    0.1096  -20.4800 C   0  0  0  0  0  0  0  0  0  0  0  0
   -5.6922    0.1669  -22.6491 H   0  0  0  0  0  0  0  0  0  0  0  0
   -3.7584    1.6684  -22.9616 H   0  0  0  0  0  0  0  0  0  0  0  0
   -2.4013    2.3672  -21.0196 H   0  0  0  0  0  0  0  0  0  0  0  0
   -3.0758    1.7213  -18.7262 H   0  0  0  0  0  0  0  0  0  0  0  0
   -4.6422    0.5819  -17.2095 H   0  0  0  0  0  0  0  0  0  0  0  0
   -7.7361   -1.7297  -18.6572 H   0  0  0  0  0  0  0  0  0  0  0  0
   -8.2117   -0.5679  -21.9941 C   0  0  0  0  0  0  0  0  0  0  0  0
   -8.3982    0.6166  -21.8224 O   0  0  0  0  0  0  0  0  0  0  0  0
   -8.8911   -1.4692  -23.0488 C   0  0  1  0  0  0  0  0  0  0  0  0
   -8.6331   -0.9239  -24.4719 C   0  0  0  0  0  0  0  0  0  0  0  0
   -9.3219    0.3276  -24.7194 N   0  0  0  0  0  0  0  0  0  0  0  0
   -8.6600    1.4098  -25.4272 C   0  0  0  0  0  0  0  0  0  0  0  0
   -8.2175    2.5020  -24.4888 C   0  0  0  0  0  0  0  0  0  0  0  0
   -6.9506    2.5783  -23.9880 C   0  0  0  0  0  0  0  0  0  0  0  0
   -6.5746    3.6280  -23.0693 C   0  0  0  0  0  0  0  0  0  0  0  0
   -5.4774    3.8461  -22.5867 O   0  0  0  0  0  0  0  0  0  0  0  0
   -7.6674    4.4599  -22.7478 N   0  0  0  0  0  0  0  0  0  0  0  0
   -8.8974    4.3237  -23.3051 C   0  0  0  0  0  0  0  0  0  0  0  0
   -9.1984    3.4045  -24.1646 N   0  0  0  0  0  0  0  0  0  0  0  0
   -9.6525    5.0451  -23.0072 H   0  0  0  0  0  0  0  0  0  0  0  0
   -7.4800    5.1791  -22.0602 H   0  0  0  0  0  0  0  0  0  0  0  0
   -6.1868    1.8595  -24.2513 H   0  0  0  0  0  0  0  0  0  0  0  0
   -9.3905    1.8325  -26.1187 H   0  0  0  0  0  0  0  0  0  0  0  0
   -7.8207    0.9934  -25.9959 H   0  0  0  0  0  0  0  0  0  0  0  0
  -10.6646    0.4361  -24.4838 C   0  0  0  0  0  0  0  0  0  0  0  0
  -11.3638    1.2887  -25.0141 O   0  0  0  0  0  0  0  0  0  0  0  0
  -11.2205   -0.5348  -23.4958 C   0  0  0  0  0  0  0  0  0  0  0  0
  -12.5904   -0.4661  -23.2443 C   0  0  0  0  0  0  0  0  0  0  0  0
  -13.1976   -1.3701  -22.3974 C   0  0  0  0  0  0  0  0  0  0  0  0
  -12.3806   -2.3127  -21.7862 C   0  0  0  0  0  0  0  0  0  0  0  0
  -12.9458   -3.2513  -21.0131 F   0  0  0  0  0  0  0  0  0  0  0  0
  -11.0098   -2.3505  -21.9511 C   0  0  0  0  0  0  0  0  0  0  0  0
  -10.4025   -1.4622  -22.8406 C   0  0  0  0  0  0  0  0  0  0  0  0
  -10.4413   -3.0609  -21.3641 H   0  0  0  0  0  0  0  0  0  0  0  0
  -14.2612   -1.3419  -22.1832 H   0  0  0  0  0  0  0  0  0  0  0  0
  -13.1461    0.3133  -23.7491 H   0  0  0  0  0  0  0  0  0  0  0  0
   -8.9869   -1.6828  -25.1816 H   0  0  0  0  0  0  0  0  0  0  0  0
   -7.5636   -0.7725  -24.6338 H   0  0  0  0  0  0  0  0  0  0  0  0
   -6.6013   -3.2931  -21.3754 H   0  0  0  0  0  0  0  0  0  0  0  0
   -8.2112   -3.1617  -20.6336 H   0  0  0  0  0  0  0  0  0  0  0  0
   -9.0360   -3.6217  -22.7686 H   0  0  0  0  0  0  0  0  0  0  0  0
   -6.8925   -4.3660  -23.5999 H   0  0  0  0  0  0  0  0  0  0  0  0
   -6.4154   -2.7122  -24.0210 H   0  0  0  0  0  0  0  0  0  0  0  0
   -7.7819   -3.4959  -24.8427 H   0  0  0  0  0  0  0  0  0  0  0  0
  1  2  1  0
  2  3  1  0
  3  4  1  0
  4  5  1  0
  5  6  2  0
  6  7  1  0
  7  8  2  0
  8  9  1  0
  9 10  2  0
 10 11  1  0
 11 12  2  0
 12 13  1  0
 13 14  2  0
 13 15  1  0
 12 16  1  0
 11 17  1  0
 10 18  1  0
  8 19  1  0
  6 20  1  0
  4 21  1  0
 21 22  2  0
 21 23  1  0
 23 24  1  6
 24 25  1  0
 25 26  1  0
 26 27  1  0
 27 28  2  0
 28 29  1  0
 29 30  2  0
 29 31  1  0
 31 32  1  0
 32 33  2  0
 32 34  1  0
 31 35  1  0
 28 36  1  0
 26 37  1  0
 26 38  1  0
 25 39  1  0
 39 40  2  0
 39 41  1  0
 41 42  2  0
 42 43  1  0
 43 44  2  0
 44 45  1  0
 44 46  1  0
 46 47  2  0
 46 48  1  0
 43 49  1  0
 42 50  1  0
 24 51  1  0
 24 52  1  0
  3 53  1  0
  3 54  1  0
  2 55  1  1
  1 56  1  0
  1 57  1  0
  1 58  1  0
 23  2  1  0
 33 27  1  0
 47 41  1  0
 14  5  1  0
 47 23  1  0
 14  9  1  0
M  END
>  <cnnaffinities>  (30) 
[5.80126]

>  <score>  (30) 
5.80126

>  <index>  (30) 
30

>  <Smiles>  (30) 
C([C@]1(C(N(c2c(nc(c3c(c(c(c(c23)[H])[H])[H])[H])[H])[H])C(=O)[C@]21C(N(C(c1c(c(=O)n(c(n1)[H])[H])[H])([H])[H])C(=O)c1c(c(c(F)c(c21)[H])[H])[H])([H])[H])([H])[H])[H])([H])([H])[H]

>  <h>  (30) 
<NA>

>  <Training>  (30) 
True

>  <Success>  (30) 
True

>  <enamine_searched>  (30) 
False

>  <enamine_id>  (30) 
nan

$$$$

     RDKit          3D

 66 71  0  0  0  0  0  0  0  0999 V2000
   -7.3546    3.4430  -21.9155 C   0  0  0  0  0  0  0  0  0  0  0  0
   -8.2203    2.9702  -22.9874 N   0  0  0  0  0  0  0  0  0  0  0  0
   -7.6443    2.2259  -23.9794 C   0  0  0  0  0  0  0  0  0  0  0  0
   -6.4399    2.0494  -24.0726 O   0  0  0  0  0  0  0  0  0  0  0  0
   -8.6190    1.6190  -24.9888 C   0  0  0  0  0  0  0  0  0  0  0  0
   -9.3201    0.4916  -24.4157 N   0  0  0  0  0  0  0  0  0  0  0  0
   -8.5830   -0.7472  -24.2389 C   0  0  0  0  0  0  0  0  0  0  0  0
   -9.0098   -1.4810  -22.9491 C   0  0  2  0  0  0  0  0  0  0  0  0
   -8.4825   -0.7166  -21.7154 C   0  0  0  0  0  0  0  0  0  0  0  0
   -8.9172    0.3204  -21.2469 O   0  0  0  0  0  0  0  0  0  0  0  0
   -7.3976   -1.3911  -21.2131 N   0  0  0  0  0  0  0  0  0  0  0  0
   -6.6163   -0.8042  -20.1845 C   0  0  0  0  0  0  0  0  0  0  0  0
   -6.9322   -1.0510  -18.8743 C   0  0  0  0  0  0  0  0  0  0  0  0
   -6.2387   -0.5709  -17.8133 N   0  0  0  0  0  0  0  0  0  0  0  0
   -5.2111    0.2037  -18.0708 C   0  0  0  0  0  0  0  0  0  0  0  0
   -4.7945    0.5709  -19.3831 C   0  0  0  0  0  0  0  0  0  0  0  0
   -3.6570    1.3900  -19.6129 C   0  0  0  0  0  0  0  0  0  0  0  0
   -3.3057    1.7524  -20.8848 C   0  0  0  0  0  0  0  0  0  0  0  0
   -4.0821    1.3322  -21.9863 C   0  0  0  0  0  0  0  0  0  0  0  0
   -5.1663    0.5045  -21.7948 C   0  0  0  0  0  0  0  0  0  0  0  0
   -5.5358    0.0818  -20.4858 C   0  0  0  0  0  0  0  0  0  0  0  0
   -5.7419    0.1775  -22.6566 H   0  0  0  0  0  0  0  0  0  0  0  0
   -3.8271    1.6601  -22.9908 H   0  0  0  0  0  0  0  0  0  0  0  0
   -2.4217    2.3603  -21.0514 H   0  0  0  0  0  0  0  0  0  0  0  0
   -3.0855    1.7219  -18.7502 H   0  0  0  0  0  0  0  0  0  0  0  0
   -4.6349    0.5720  -17.2209 H   0  0  0  0  0  0  0  0  0  0  0  0
   -7.7919   -1.6762  -18.6455 H   0  0  0  0  0  0  0  0  0  0  0  0
   -7.0610   -2.5997  -21.9424 C   0  0  0  0  0  0  0  0  0  0  0  0
   -8.3007   -2.8638  -22.8133 C   0  0  2  0  0  0  0  0  0  0  0  0
   -7.9261   -3.6206  -24.0938 C   0  0  0  0  0  0  0  0  0  0  0  0
   -9.0885   -3.9630  -24.8827 N   0  0  0  0  0  0  0  0  0  0  0  0
   -8.9845   -4.5898  -26.0852 C   0  0  0  0  0  0  0  0  0  0  0  0
  -10.1295   -4.9098  -26.8406 C   0  0  0  0  0  0  0  0  0  0  0  0
   -9.9264   -5.5287  -28.0507 C   0  0  0  0  0  0  0  0  0  0  0  0
   -8.7117   -5.8383  -28.5329 N   0  0  0  0  0  0  0  0  0  0  0  0
   -7.7089   -5.4994  -27.7363 C   0  0  0  0  0  0  0  0  0  0  0  0
   -7.7615   -4.8916  -26.5455 N   0  0  0  0  0  0  0  0  0  0  0  0
   -6.7050   -5.7440  -28.0948 H   0  0  0  0  0  0  0  0  0  0  0  0
  -10.7698   -5.8001  -28.6842 H   0  0  0  0  0  0  0  0  0  0  0  0
  -11.1283   -4.6818  -26.4856 H   0  0  0  0  0  0  0  0  0  0  0  0
  -10.0084   -3.7483  -24.5282 H   0  0  0  0  0  0  0  0  0  0  0  0
   -7.3925   -4.5455  -23.8374 H   0  0  0  0  0  0  0  0  0  0  0  0
   -7.2396   -3.0289  -24.7175 H   0  0  0  0  0  0  0  0  0  0  0  0
   -8.9779   -3.5180  -22.2547 H   0  0  0  0  0  0  0  0  0  0  0  0
   -6.8590   -3.4283  -21.2562 H   0  0  0  0  0  0  0  0  0  0  0  0
   -6.1668   -2.4591  -22.5695 H   0  0  0  0  0  0  0  0  0  0  0  0
  -10.5222   -1.5229  -22.8941 C   0  0  0  0  0  0  0  0  0  0  0  0
  -11.1604   -2.4041  -22.0183 C   0  0  0  0  0  0  0  0  0  0  0  0
  -12.5373   -2.3969  -21.9131 C   0  0  0  0  0  0  0  0  0  0  0  0
  -13.2828   -3.4583  -20.7590 Cl  0  0  0  0  0  0  0  0  0  0  0  0
  -13.3299   -1.5316  -22.6661 C   0  0  0  0  0  0  0  0  0  0  0  0
  -12.7003   -0.6247  -23.4941 C   0  0  0  0  0  0  0  0  0  0  0  0
  -11.3115   -0.5965  -23.5856 C   0  0  0  0  0  0  0  0  0  0  0  0
  -10.6873    0.5141  -24.3665 C   0  0  0  0  0  0  0  0  0  0  0  0
  -11.3529    1.4017  -24.8809 O   0  0  0  0  0  0  0  0  0  0  0  0
  -13.2531    0.1023  -24.0751 H   0  0  0  0  0  0  0  0  0  0  0  0
  -14.4105   -1.5698  -22.5828 H   0  0  0  0  0  0  0  0  0  0  0  0
  -10.5960   -3.0731  -21.3785 H   0  0  0  0  0  0  0  0  0  0  0  0
   -8.7582   -1.4139  -25.0927 H   0  0  0  0  0  0  0  0  0  0  0  0
   -7.5119   -0.5179  -24.2056 H   0  0  0  0  0  0  0  0  0  0  0  0
   -8.0440    1.3003  -25.8654 H   0  0  0  0  0  0  0  0  0  0  0  0
   -9.3796    2.3442  -25.2912 H   0  0  0  0  0  0  0  0  0  0  0  0
   -9.1795    2.7585  -22.7370 H   0  0  0  0  0  0  0  0  0  0  0  0
   -7.9419    4.0045  -21.1840 H   0  0  0  0  0  0  0  0  0  0  0  0
   -6.5943    4.1136  -22.3269 H   0  0  0  0  0  0  0  0  0  0  0  0
   -6.8475    2.5974  -21.4250 H   0  0  0  0  0  0  0  0  0  0  0  0
  1  2  1  0
  2  3  1  0
  3  4  2  0
  3  5  1  0
  5  6  1  0
  6  7  1  0
  8  7  1  6
  8  9  1  0
  9 10  2  0
  9 11  1  0
 11 12  1  0
 12 13  2  0
 13 14  1  0
 14 15  2  0
 15 16  1  0
 16 17  2  0
 17 18  1  0
 18 19  2  0
 19 20  1  0
 20 21  2  0
 20 22  1  0
 19 23  1  0
 18 24  1  0
 17 25  1  0
 15 26  1  0
 13 27  1  0
 11 28  1  0
 28 29  1  0
 29 30  1  0
 30 31  1  0
 31 32  1  0
 32 33  2  0
 33 34  1  0
 34 35  2  0
 35 36  1  0
 36 37  2  0
 36 38  1  0
 34 39  1  0
 33 40  1  0
 31 41  1  0
 30 42  1  0
 30 43  1  0
 29 44  1  1
 28 45  1  0
 28 46  1  0
  8 47  1  0
 47 48  2  0
 48 49  1  0
 49 50  1  0
 49 51  2  0
 51 52  1  0
 52 53  2  0
 53 54  1  0
 54 55  2  0
 52 56  1  0
 51 57  1  0
 48 58  1  0
  7 59  1  0
  7 60  1  0
  5 61  1  0
  5 62  1  0
  2 63  1  0
  1 64  1  0
  1 65  1  0
  1 66  1  0
 54  6  1  0
 29  8  1  0
 37 32  1  0
 53 47  1  0
 21 12  1  0
 21 16  1  0
M  END
>  <cnnaffinities>  (31) 
[5.73876]

>  <score>  (31) 
5.73876

>  <index>  (31) 
31

>  <Smiles>  (31) 
C(N(C(=O)C(N1C([C@@]2(C(=O)N(c3c(nc(c4c(c(c(c(c34)[H])[H])[H])[H])[H])[H])C([C@@]2(C(N(c2c(c(nc(n2)[H])[H])[H])[H])([H])[H])[H])([H])[H])c2c(c(Cl)c(c(c2C1=O)[H])[H])[H])([H])[H])([H])[H])[H])([H])([H])[H]

>  <h>  (31) 
<NA>

>  <Training>  (31) 
True

>  <Success>  (31) 
True

>  <enamine_searched>  (31) 
False

>  <enamine_id>  (31) 
nan

$$$$

     RDKit          3D

 57 62  0  0  0  0  0  0  0  0999 V2000
   -8.1213   -4.0485  -23.7133 C   0  0  0  0  0  0  0  0  0  0  0  0
   -8.3893   -3.1527  -22.4989 C   0  0  1  0  0  0  0  0  0  0  0  0
   -7.1081   -2.4158  -22.0511 C   0  0  0  0  0  0  0  0  0  0  0  0
   -7.5970   -1.2722  -21.3070 N   0  0  0  0  0  0  0  0  0  0  0  0
   -6.8531   -0.7057  -20.2298 C   0  0  0  0  0  0  0  0  0  0  0  0
   -7.1314   -1.0490  -18.9281 C   0  0  0  0  0  0  0  0  0  0  0  0
   -6.3910   -0.6653  -17.8554 N   0  0  0  0  0  0  0  0  0  0  0  0
   -5.3364    0.0834  -18.0702 C   0  0  0  0  0  0  0  0  0  0  0  0
   -4.9315    0.5226  -19.3615 C   0  0  0  0  0  0  0  0  0  0  0  0
   -3.7921    1.3514  -19.5529 C   0  0  0  0  0  0  0  0  0  0  0  0
   -3.4556    1.7858  -20.8045 C   0  0  0  0  0  0  0  0  0  0  0  0
   -4.2337    1.4053  -21.9196 C   0  0  0  0  0  0  0  0  0  0  0  0
   -5.3329    0.5924  -21.7612 C   0  0  0  0  0  0  0  0  0  0  0  0
   -5.7099    0.1263  -20.4782 C   0  0  0  0  0  0  0  0  0  0  0  0
   -5.9636    0.3723  -22.6202 H   0  0  0  0  0  0  0  0  0  0  0  0
   -3.9785    1.7744  -22.9094 H   0  0  0  0  0  0  0  0  0  0  0  0
   -2.6067    2.4489  -20.9477 H   0  0  0  0  0  0  0  0  0  0  0  0
   -3.2039    1.6383  -18.6829 H   0  0  0  0  0  0  0  0  0  0  0  0
   -4.7371    0.3804  -17.2045 H   0  0  0  0  0  0  0  0  0  0  0  0
   -7.9936   -1.6741  -18.7048 H   0  0  0  0  0  0  0  0  0  0  0  0
   -8.9214   -0.9894  -21.5854 C   0  0  0  0  0  0  0  0  0  0  0  0
   -9.5570   -0.1003  -21.0565 O   0  0  0  0  0  0  0  0  0  0  0  0
   -9.4376   -1.9986  -22.6739 C   0  0  1  0  0  0  0  0  0  0  0  0
   -9.3008   -1.4099  -24.1025 C   0  0  0  0  0  0  0  0  0  0  0  0
  -10.3294   -0.4488  -24.4722 N   0  0  0  0  0  0  0  0  0  0  0  0
   -9.8888    0.7401  -25.1921 C   0  0  0  0  0  0  0  0  0  0  0  0
   -9.1095    1.5935  -24.2375 C   0  0  0  0  0  0  0  0  0  0  0  0
   -7.8068    1.7682  -24.2235 N   0  0  0  0  0  0  0  0  0  0  0  0
   -7.5444    2.4394  -23.0823 N   0  0  0  0  0  0  0  0  0  0  0  0
   -8.6210    2.6553  -22.4102 N   0  0  0  0  0  0  0  0  0  0  0  0
   -9.6273    2.1342  -23.1208 N   0  0  0  0  0  0  0  0  0  0  0  0
  -10.9950    2.2646  -22.6341 C   0  0  0  0  0  0  0  0  0  0  0  0
  -11.1963    1.4528  -21.9247 H   0  0  0  0  0  0  0  0  0  0  0  0
  -11.6775    2.2450  -23.4913 H   0  0  0  0  0  0  0  0  0  0  0  0
  -11.0701    3.2326  -22.1309 H   0  0  0  0  0  0  0  0  0  0  0  0
  -10.7764    1.2302  -25.6046 H   0  0  0  0  0  0  0  0  0  0  0  0
   -9.2328    0.4520  -26.0174 H   0  0  0  0  0  0  0  0  0  0  0  0
  -11.6370   -0.5457  -24.0895 C   0  0  0  0  0  0  0  0  0  0  0  0
  -12.5321    0.1148  -24.6067 O   0  0  0  0  0  0  0  0  0  0  0  0
  -11.9089   -1.4577  -22.9435 C   0  0  0  0  0  0  0  0  0  0  0  0
  -13.1804   -1.4068  -22.3691 C   0  0  0  0  0  0  0  0  0  0  0  0
  -13.5365   -2.3469  -21.4297 C   0  0  0  0  0  0  0  0  0  0  0  0
  -12.6238   -3.3456  -21.1259 C   0  0  0  0  0  0  0  0  0  0  0  0
  -13.0072   -4.2634  -20.2244 F   0  0  0  0  0  0  0  0  0  0  0  0
  -11.3374   -3.3691  -21.6293 C   0  0  0  0  0  0  0  0  0  0  0  0
  -10.9115   -2.3230  -22.4551 C   0  0  0  0  0  0  0  0  0  0  0  0
  -10.6683   -4.1528  -21.2961 H   0  0  0  0  0  0  0  0  0  0  0  0
  -14.4972   -2.3608  -20.9320 H   0  0  0  0  0  0  0  0  0  0  0  0
  -13.8656   -0.6169  -22.6659 H   0  0  0  0  0  0  0  0  0  0  0  0
   -8.3239   -0.9205  -24.1845 H   0  0  0  0  0  0  0  0  0  0  0  0
   -9.3370   -2.2439  -24.8109 H   0  0  0  0  0  0  0  0  0  0  0  0
   -6.5377   -2.0984  -22.9389 H   0  0  0  0  0  0  0  0  0  0  0  0
   -6.4423   -3.0204  -21.4278 H   0  0  0  0  0  0  0  0  0  0  0  0
   -8.7085   -3.7824  -21.6605 H   0  0  0  0  0  0  0  0  0  0  0  0
   -7.4371   -4.8671  -23.4644 H   0  0  0  0  0  0  0  0  0  0  0  0
   -9.0349   -4.4916  -24.1248 H   0  0  0  0  0  0  0  0  0  0  0  0
   -7.6477   -3.4747  -24.5187 H   0  0  0  0  0  0  0  0  0  0  0  0
  1  2  1  0
  2  3  1  0
  3  4  1  0
  4  5  1  0
  5  6  2  0
  6  7  1  0
  7  8  2  0
  8  9  1  0
  9 10  2  0
 10 11  1  0
 11 12  2  0
 12 13  1  0
 13 14  2  0
 13 15  1  0
 12 16  1  0
 11 17  1  0
 10 18  1  0
  8 19  1  0
  6 20  1  0
  4 21  1  0
 21 22  2  0
 21 23  1  0
 23 24  1  6
 24 25  1  0
 25 26  1  0
 26 27  1  0
 27 28  2  0
 28 29  1  0
 29 30  2  0
 30 31  1  0
 31 32  1  0
 32 33  1  0
 32 34  1  0
 32 35  1  0
 26 36  1  0
 26 37  1  0
 25 38  1  0
 38 39  2  0
 38 40  1  0
 40 41  2  0
 41 42  1  0
 42 43  2  0
 43 44  1  0
 43 45  1  0
 45 46  2  0
 45 47  1  0
 42 48  1  0
 41 49  1  0
 24 50  1  0
 24 51  1  0
  3 52  1  0
  3 53  1  0
  2 54  1  1
  1 55  1  0
  1 56  1  0
  1 57  1  0
 23  2  1  0
 31 27  1  0
 46 40  1  0
 14  5  1  0
 46 23  1  0
 14  9  1  0
M  END
>  <cnnaffinities>  (32) 
[6.29081, 5.6561]

>  <score>  (32) 
6.29081

>  <index>  (32) 
32

>  <Smiles>  (32) 
C([C@]1(C(N(c2c(nc(c3c(c(c(c(c23)[H])[H])[H])[H])[H])[H])C(=O)[C@]21C(N(C(c1nnnn1C([H])([H])[H])([H])[H])C(=O)c1c(c(c(F)c(c21)[H])[H])[H])([H])[H])([H])[H])[H])([H])([H])[H]

>  <h>  (32) 
<NA>

>  <Training>  (32) 
True

>  <Success>  (32) 
True

>  <enamine_searched>  (32) 
False

>  <enamine_id>  (32) 
nan

$$$$

     RDKit          3D

 66 70  0  0  0  0  0  0  0  0999 V2000
   -7.4071    3.4021  -21.9177 C   0  0  0  0  0  0  0  0  0  0  0  0
   -8.3488    2.9178  -22.9172 N   0  0  0  0  0  0  0  0  0  0  0  0
   -7.8256    2.1699  -23.9341 C   0  0  0  0  0  0  0  0  0  0  0  0
   -6.6278    1.9725  -24.0644 O   0  0  0  0  0  0  0  0  0  0  0  0
   -8.8419    1.5707  -24.9069 C   0  0  0  0  0  0  0  0  0  0  0  0
   -9.4980    0.4321  -24.2927 N   0  0  0  0  0  0  0  0  0  0  0  0
   -8.7467   -0.8046  -24.1393 C   0  0  0  0  0  0  0  0  0  0  0  0
   -9.1071   -1.5302  -22.8207 C   0  0  2  0  0  0  0  0  0  0  0  0
   -8.5574   -0.7401  -21.6096 C   0  0  0  0  0  0  0  0  0  0  0  0
   -9.0170    0.2692  -21.1059 O   0  0  0  0  0  0  0  0  0  0  0  0
   -7.4083   -1.3618  -21.1826 N   0  0  0  0  0  0  0  0  0  0  0  0
   -6.6209   -0.7814  -20.1610 C   0  0  0  0  0  0  0  0  0  0  0  0
   -6.9252   -1.0405  -18.8517 C   0  0  0  0  0  0  0  0  0  0  0  0
   -6.2259   -0.5634  -17.7944 N   0  0  0  0  0  0  0  0  0  0  0  0
   -5.1974    0.2068  -18.0576 C   0  0  0  0  0  0  0  0  0  0  0  0
   -4.7852    0.5735  -19.3710 C   0  0  0  0  0  0  0  0  0  0  0  0
   -3.6541    1.3966  -19.6087 C   0  0  0  0  0  0  0  0  0  0  0  0
   -3.3192    1.7679  -20.8804 C   0  0  0  0  0  0  0  0  0  0  0  0
   -4.1038    1.3515  -21.9777 C   0  0  0  0  0  0  0  0  0  0  0  0
   -5.1858    0.5230  -21.7807 C   0  0  0  0  0  0  0  0  0  0  0  0
   -5.5380    0.0948  -20.4707 C   0  0  0  0  0  0  0  0  0  0  0  0
   -5.7801    0.2135  -22.6367 H   0  0  0  0  0  0  0  0  0  0  0  0
   -3.8552    1.6839  -22.9815 H   0  0  0  0  0  0  0  0  0  0  0  0
   -2.4424    2.3837  -21.0527 H   0  0  0  0  0  0  0  0  0  0  0  0
   -3.0804    1.7331  -18.7494 H   0  0  0  0  0  0  0  0  0  0  0  0
   -4.6220    0.5751  -17.2075 H   0  0  0  0  0  0  0  0  0  0  0  0
   -7.7804   -1.6716  -18.6238 H   0  0  0  0  0  0  0  0  0  0  0  0
   -7.0593   -2.5618  -21.9185 C   0  0  0  0  0  0  0  0  0  0  0  0
   -8.3502   -2.8827  -22.6902 C   0  0  2  0  0  0  0  0  0  0  0  0
   -8.0798   -3.6688  -23.9755 C   0  0  0  0  0  0  0  0  0  0  0  0
   -7.5287   -4.9352  -23.6762 O   0  0  0  0  0  0  0  0  0  0  0  0
   -8.4631   -6.0125  -23.5896 C   0  0  0  0  0  0  0  0  0  0  0  0
   -7.9515   -6.9514  -22.5094 C   0  0  0  0  0  0  0  0  0  0  0  0
   -7.8286   -6.4113  -21.5693 H   0  0  0  0  0  0  0  0  0  0  0  0
   -6.9768   -7.3506  -22.8072 H   0  0  0  0  0  0  0  0  0  0  0  0
   -8.6473   -7.7821  -22.3466 H   0  0  0  0  0  0  0  0  0  0  0  0
   -8.5760   -6.7306  -24.9351 C   0  0  0  0  0  0  0  0  0  0  0  0
   -8.9193   -6.0541  -25.7274 H   0  0  0  0  0  0  0  0  0  0  0  0
   -9.2859   -7.5650  -24.8586 H   0  0  0  0  0  0  0  0  0  0  0  0
   -7.5957   -7.1282  -25.2247 H   0  0  0  0  0  0  0  0  0  0  0  0
   -9.4608   -5.6256  -23.3059 H   0  0  0  0  0  0  0  0  0  0  0  0
   -8.9964   -3.7568  -24.5838 H   0  0  0  0  0  0  0  0  0  0  0  0
   -7.3284   -3.1413  -24.5791 H   0  0  0  0  0  0  0  0  0  0  0  0
   -8.9498   -3.5301  -22.0463 H   0  0  0  0  0  0  0  0  0  0  0  0
   -6.7767   -3.3713  -21.2381 H   0  0  0  0  0  0  0  0  0  0  0  0
   -6.2136   -2.3917  -22.6031 H   0  0  0  0  0  0  0  0  0  0  0  0
  -10.6145   -1.6153  -22.7368 C   0  0  0  0  0  0  0  0  0  0  0  0
  -11.2255   -2.5542  -21.9045 C   0  0  0  0  0  0  0  0  0  0  0  0
  -12.5982   -2.5735  -21.7699 C   0  0  0  0  0  0  0  0  0  0  0  0
  -13.3031   -3.6999  -20.6558 Cl  0  0  0  0  0  0  0  0  0  0  0  0
  -13.4223   -1.6898  -22.4610 C   0  0  0  0  0  0  0  0  0  0  0  0
  -12.8236   -0.7432  -23.2627 C   0  0  0  0  0  0  0  0  0  0  0  0
  -11.4383   -0.6847  -23.3828 C   0  0  0  0  0  0  0  0  0  0  0  0
  -10.8599    0.4446  -24.1756 C   0  0  0  0  0  0  0  0  0  0  0  0
  -11.5534    1.3304  -24.6529 O   0  0  0  0  0  0  0  0  0  0  0  0
  -13.4046   -0.0133  -23.8103 H   0  0  0  0  0  0  0  0  0  0  0  0
  -14.4996   -1.7459  -22.3551 H   0  0  0  0  0  0  0  0  0  0  0  0
  -10.6523   -3.2728  -21.3329 H   0  0  0  0  0  0  0  0  0  0  0  0
   -8.9677   -1.4830  -24.9750 H   0  0  0  0  0  0  0  0  0  0  0  0
   -7.6763   -0.5728  -24.1700 H   0  0  0  0  0  0  0  0  0  0  0  0
   -9.6198    2.2908  -25.1830 H   0  0  0  0  0  0  0  0  0  0  0  0
   -8.3190    1.2562  -25.8185 H   0  0  0  0  0  0  0  0  0  0  0  0
   -9.2877    2.6958  -22.6024 H   0  0  0  0  0  0  0  0  0  0  0  0
   -6.6429    4.0098  -22.4141 H   0  0  0  0  0  0  0  0  0  0  0  0
   -6.9160    2.5562  -21.4059 H   0  0  0  0  0  0  0  0  0  0  0  0
   -7.9241    4.0474  -21.2031 H   0  0  0  0  0  0  0  0  0  0  0  0
  1  2  1  0
  2  3  1  0
  3  4  2  0
  3  5  1  0
  5  6  1  0
  6  7  1  0
  8  7  1  6
  8  9  1  0
  9 10  2  0
  9 11  1  0
 11 12  1  0
 12 13  2  0
 13 14  1  0
 14 15  2  0
 15 16  1  0
 16 17  2  0
 17 18  1  0
 18 19  2  0
 19 20  1  0
 20 21  2  0
 20 22  1  0
 19 23  1  0
 18 24  1  0
 17 25  1  0
 15 26  1  0
 13 27  1  0
 11 28  1  0
 28 29  1  0
 29 30  1  0
 30 31  1  0
 31 32  1  0
 32 33  1  0
 33 34  1  0
 33 35  1  0
 33 36  1  0
 32 37  1  0
 37 38  1  0
 37 39  1  0
 37 40  1  0
 32 41  1  0
 30 42  1  0
 30 43  1  0
 29 44  1  1
 28 45  1  0
 28 46  1  0
  8 47  1  0
 47 48  2  0
 48 49  1  0
 49 50  1  0
 49 51  2  0
 51 52  1  0
 52 53  2  0
 53 54  1  0
 54 55  2  0
 52 56  1  0
 51 57  1  0
 48 58  1  0
  7 59  1  0
  7 60  1  0
  5 61  1  0
  5 62  1  0
  2 63  1  0
  1 64  1  0
  1 65  1  0
  1 66  1  0
 54  6  1  0
 29  8  1  0
 53 47  1  0
 21 12  1  0
 21 16  1  0
M  END
>  <cnnaffinities>  (33) 
[5.84257, 5.81817, 5.65897]

>  <score>  (33) 
5.84257

>  <index>  (33) 
34

>  <Smiles>  (33) 
C(N(C(=O)C(N1C([C@@]2(C(=O)N(c3c(nc(c4c(c(c(c(c34)[H])[H])[H])[H])[H])[H])C([C@@]2(C(OC(C([H])([H])[H])(C([H])([H])[H])[H])([H])[H])[H])([H])[H])c2c(c(Cl)c(c(c2C1=O)[H])[H])[H])([H])[H])([H])[H])[H])([H])([H])[H]

>  <h>  (33) 
<NA>

>  <Training>  (33) 
True

>  <Success>  (33) 
True

>  <enamine_searched>  (33) 
False

>  <enamine_id>  (33) 
nan

$$$$

     RDKit          3D

 40 42  0  0  0  0  0  0  0  0999 V2000
   -9.0223   -1.7858  -22.6853 O   0  0  0  0  0  0  0  0  0  0  0  0
   -8.1915   -0.9150  -22.4616 C   0  0  0  0  0  0  0  0  0  0  0  0
   -6.7520   -1.2527  -22.0970 C   0  0  0  0  0  0  0  0  0  0  0  0
   -6.3161   -0.6093  -20.7871 C   0  0  0  0  0  0  0  0  0  0  0  0
   -6.9602   -0.9499  -19.6213 C   0  0  0  0  0  0  0  0  0  0  0  0
   -6.6424   -0.4947  -18.3825 N   0  0  0  0  0  0  0  0  0  0  0  0
   -5.6283    0.3322  -18.2932 C   0  0  0  0  0  0  0  0  0  0  0  0
   -4.8640    0.7746  -19.4081 C   0  0  0  0  0  0  0  0  0  0  0  0
   -3.7516    1.6429  -19.2649 C   0  0  0  0  0  0  0  0  0  0  0  0
   -3.0990    2.1317  -20.3621 C   0  0  0  0  0  0  0  0  0  0  0  0
   -3.5254    1.7683  -21.6542 C   0  0  0  0  0  0  0  0  0  0  0  0
   -4.5818    0.9041  -21.8132 C   0  0  0  0  0  0  0  0  0  0  0  0
   -5.2514    0.3406  -20.6980 C   0  0  0  0  0  0  0  0  0  0  0  0
   -4.8692    0.6220  -22.8209 H   0  0  0  0  0  0  0  0  0  0  0  0
   -3.0158    2.1729  -22.5230 H   0  0  0  0  0  0  0  0  0  0  0  0
   -2.2558    2.8044  -20.2456 H   0  0  0  0  0  0  0  0  0  0  0  0
   -3.4249    1.9035  -18.2620 H   0  0  0  0  0  0  0  0  0  0  0  0
   -5.3795    0.7130  -17.3010 H   0  0  0  0  0  0  0  0  0  0  0  0
   -7.7884   -1.6590  -19.6494 H   0  0  0  0  0  0  0  0  0  0  0  0
   -6.0701   -0.9883  -22.9112 H   0  0  0  0  0  0  0  0  0  0  0  0
   -6.7383   -2.3430  -22.0147 H   0  0  0  0  0  0  0  0  0  0  0  0
   -8.4318    0.4273  -22.4525 N   0  0  0  0  0  0  0  0  0  0  0  0
   -9.6899    0.9254  -21.8473 C   0  0  0  0  0  0  0  0  0  0  0  0
   -9.6786    1.0906  -22.0173 C   0  0  0  0  0  0  0  0  0  0  0  0
   -9.4132    2.9260  -23.6845 C   0  0  0  0  0  0  0  0  0  0  0  0
   -8.6449    5.5743  -23.0861 C   0  0  0  0  0  0  0  0  0  0  0  0
   -8.0955    5.3875  -21.9061 F   0  0  0  0  0  0  0  0  0  0  0  0
   -7.7377    5.9350  -23.9731 F   0  0  0  0  0  0  0  0  0  0  0  0
   -9.6172    6.4575  -23.0146 F   0  0  0  0  0  0  0  0  0  0  0  0
   -8.1295    2.5873  -23.7223 C   0  0  0  0  0  0  0  0  0  0  0  0
   -7.4984    1.3761  -23.1201 C   0  0  0  0  0  0  0  0  0  0  0  0
   -6.9584    0.8416  -23.9006 H   0  0  0  0  0  0  0  0  0  0  0  0
   -6.7646    1.7256  -22.3834 H   0  0  0  0  0  0  0  0  0  0  0  0
   -7.4066    3.2523  -24.1827 H   0  0  0  0  0  0  0  0  0  0  0  0
  -10.1856    2.1915  -23.6155 H   0  0  0  0  0  0  0  0  0  0  0  0
   -9.6554    3.9774  -23.7631 H   0  0  0  0  0  0  0  0  0  0  0  0
   -9.0488    1.9566  -21.4208 H   0  0  0  0  0  0  0  0  0  0  0  0
  -10.6651    1.7629  -21.7569 H   0  0  0  0  0  0  0  0  0  0  0  0
  -10.3752    0.5672  -22.8674 H   0  0  0  0  0  0  0  0  0  0  0  0
   -9.9921   -0.0556  -20.6605 H   0  0  0  0  0  0  0  0  0  0  0  0
  1  2  2  0
  2  3  1  0
  3  4  1  0
  4  5  2  0
  5  6  1  0
  6  7  2  0
  7  8  1  0
  8  9  2  0
  9 10  1  0
 10 11  2  0
 11 12  1  0
 12 13  2  0
 12 14  1  0
 11 15  1  0
 10 16  1  0
  9 17  1  0
  7 18  1  0
  5 19  1  0
  3 20  1  0
  3 21  1  0
  2 22  1  0
 22 23  1  0
 23 24  1  0
 24 25  1  0
 25 26  1  0
 26 27  1  0
 26 28  1  0
 26 29  1  0
 25 30  1  0
 30 31  1  0
 31 32  1  0
 31 33  1  0
 30 34  1  0
 30 35  1  0
 25 36  1  0
 24 37  1  0
 24 38  1  0
 23 39  1  0
 23 40  1  0
 13  4  1  0
 31 22  1  0
 13  8  1  0
M  END
>  <cnnaffinities>  (34) 
[4.40778, 4.46395]

>  <score>  (34) 
4.40778

>  <index>  (34) 
35

>  <Smiles>  (34) 
O=C(C(c1c(nc(c2c(c(c(c(c12)[H])[H])[H])[H])[H])[H])([H])[H])N1C(C(C(C(F)(F)F)(C(C1([H])[H])([H])[H])[H])([H])[H])([H])[H]

>  <h>  (34) 
<NA>

>  <Training>  (34) 
True

>  <Success>  (34) 
True

>  <enamine_searched>  (34) 
False

>  <enamine_id>  (34) 
nan

$$$$

     RDKit          3D

 47 50  0  0  0  0  0  0  0  0999 V2000
   -5.7723   -3.2734  -21.1958 O   0  0  0  0  0  0  0  0  0  0  0  0
   -6.4930   -2.5690  -21.8825 C   0  0  0  0  0  0  0  0  0  0  0  0
   -7.3744   -1.4835  -21.2622 C   0  0  0  0  0  0  0  0  0  0  0  0
   -6.6327   -0.7680  -20.1646 C   0  0  0  0  0  0  0  0  0  0  0  0
   -6.9003   -1.0529  -18.8530 C   0  0  0  0  0  0  0  0  0  0  0  0
   -6.2101   -0.5801  -17.7826 N   0  0  0  0  0  0  0  0  0  0  0  0
   -5.2092    0.2303  -18.0400 C   0  0  0  0  0  0  0  0  0  0  0  0
   -4.8152    0.6157  -19.3503 C   0  0  0  0  0  0  0  0  0  0  0  0
   -3.6609    1.4052  -19.5783 C   0  0  0  0  0  0  0  0  0  0  0  0
   -3.3054    1.7745  -20.8483 C   0  0  0  0  0  0  0  0  0  0  0  0
   -4.1036    1.3795  -21.9444 C   0  0  0  0  0  0  0  0  0  0  0  0
   -5.1945    0.5627  -21.7603 C   0  0  0  0  0  0  0  0  0  0  0  0
   -5.5585    0.1257  -20.4555 C   0  0  0  0  0  0  0  0  0  0  0  0
   -5.7809    0.2552  -22.6248 H   0  0  0  0  0  0  0  0  0  0  0  0
   -3.8491    1.7351  -22.9422 H   0  0  0  0  0  0  0  0  0  0  0  0
   -2.4211    2.3874  -21.0171 H   0  0  0  0  0  0  0  0  0  0  0  0
   -3.0680    1.7096  -18.7176 H   0  0  0  0  0  0  0  0  0  0  0  0
   -4.6255    0.5924  -17.1905 H   0  0  0  0  0  0  0  0  0  0  0  0
   -7.7225   -1.7257  -18.6113 H   0  0  0  0  0  0  0  0  0  0  0  0
   -8.2713   -1.9785  -20.8614 H   0  0  0  0  0  0  0  0  0  0  0  0
   -7.6903   -0.7806  -22.0406 H   0  0  0  0  0  0  0  0  0  0  0  0
   -6.5192   -2.6820  -23.2585 N   0  0  0  0  0  0  0  0  0  0  0  0
   -5.3618   -3.2958  -23.8840 C   0  0  0  0  0  0  0  0  0  0  0  0
   -4.8320   -2.3612  -24.9575 C   0  0  0  0  0  0  0  0  0  0  0  0
   -5.9313   -2.0721  -25.9782 C   0  0  0  0  0  0  0  0  0  0  0  0
   -7.2069   -1.5660  -25.2919 C   0  0  0  0  0  0  0  0  0  0  0  0
   -7.6654   -2.4873  -24.1529 C   0  0  1  0  0  0  0  0  0  0  0  0
   -8.2662   -3.8157  -24.6463 C   0  0  0  0  0  0  0  0  0  0  0  0
   -8.5247   -4.8338  -23.7225 C   0  0  0  0  0  0  0  0  0  0  0  0
   -9.0904   -6.0409  -24.1204 C   0  0  0  0  0  0  0  0  0  0  0  0
   -9.4335   -6.2571  -25.4497 C   0  0  0  0  0  0  0  0  0  0  0  0
   -9.1871   -5.2557  -26.3792 C   0  0  0  0  0  0  0  0  0  0  0  0
   -8.6067   -4.0540  -25.9832 C   0  0  0  0  0  0  0  0  0  0  0  0
   -8.4161   -3.3151  -26.7548 H   0  0  0  0  0  0  0  0  0  0  0  0
   -9.4555   -5.4007  -27.4224 H   0  0  0  0  0  0  0  0  0  0  0  0
   -9.8948   -7.1904  -25.7607 H   0  0  0  0  0  0  0  0  0  0  0  0
   -9.2749   -6.8142  -23.3816 H   0  0  0  0  0  0  0  0  0  0  0  0
   -8.2869   -4.6980  -22.6711 H   0  0  0  0  0  0  0  0  0  0  0  0
   -8.4506   -1.9897  -23.5688 H   0  0  0  0  0  0  0  0  0  0  0  0
   -8.0227   -1.4089  -26.0052 H   0  0  0  0  0  0  0  0  0  0  0  0
   -7.0069   -0.5749  -24.8694 H   0  0  0  0  0  0  0  0  0  0  0  0
   -6.1381   -2.9932  -26.5365 H   0  0  0  0  0  0  0  0  0  0  0  0
   -5.5892   -1.3378  -26.7173 H   0  0  0  0  0  0  0  0  0  0  0  0
   -4.5221   -1.4252  -24.4819 H   0  0  0  0  0  0  0  0  0  0  0  0
   -3.9316   -2.7754  -25.4255 H   0  0  0  0  0  0  0  0  0  0  0  0
   -5.6561   -4.2639  -24.3082 H   0  0  0  0  0  0  0  0  0  0  0  0
   -4.6391   -3.4903  -23.0923 H   0  0  0  0  0  0  0  0  0  0  0  0
  1  2  2  0
  2  3  1  0
  3  4  1  0
  4  5  2  0
  5  6  1  0
  6  7  2  0
  7  8  1  0
  8  9  2  0
  9 10  1  0
 10 11  2  0
 11 12  1  0
 12 13  2  0
 12 14  1  0
 11 15  1  0
 10 16  1  0
  9 17  1  0
  7 18  1  0
  5 19  1  0
  3 20  1  0
  3 21  1  0
  2 22  1  0
 22 23  1  0
 23 24  1  0
 24 25  1  0
 25 26  1  0
 26 27  1  0
 27 28  1  0
 28 29  2  0
 29 30  1  0
 30 31  2  0
 31 32  1  0
 32 33  2  0
 33 34  1  0
 32 35  1  0
 31 36  1  0
 30 37  1  0
 29 38  1  0
 27 39  1  1
 26 40  1  0
 26 41  1  0
 25 42  1  0
 25 43  1  0
 24 44  1  0
 24 45  1  0
 23 46  1  0
 23 47  1  0
 13  4  1  0
 27 22  1  0
 33 28  1  0
 13  8  1  0
M  END
>  <cnnaffinities>  (35) 
[4.89392, 4.89553, 5.12266, 5.11941, 4.89504]

>  <score>  (35) 
4.89392

>  <index>  (35) 
36

>  <Smiles>  (35) 
O=C(C(c1c(nc(c2c(c(c(c(c12)[H])[H])[H])[H])[H])[H])([H])[H])N1C(C(C(C([C@]1(c1c(c(c(c(c1[H])[H])[H])[H])[H])[H])([H])[H])([H])[H])([H])[H])([H])[H]

>  <h>  (35) 
<NA>

>  <Training>  (35) 
True

>  <Success>  (35) 
True

>  <enamine_searched>  (35) 
False

>  <enamine_id>  (35) 
nan

$$$$

     RDKit          3D

 56 60  0  0  0  0  0  0  0  0999 V2000
   -6.8280    3.5760  -23.2074 C   0  0  0  0  0  0  0  0  0  0  0  0
   -7.7076    2.9572  -24.1772 N   0  0  0  0  0  0  0  0  0  0  0  0
   -7.2888    1.8513  -24.8337 C   0  0  0  0  0  0  0  0  0  0  0  0
   -6.1470    1.4107  -24.7535 O   0  0  0  0  0  0  0  0  0  0  0  0
   -8.3616    1.1598  -25.6749 C   0  0  0  0  0  0  0  0  0  0  0  0
   -9.1787    0.2997  -24.8368 N   0  0  0  0  0  0  0  0  0  0  0  0
   -8.6868   -1.0227  -24.4989 C   0  0  0  0  0  0  0  0  0  0  0  0
   -8.9993   -1.4183  -23.0320 C   0  0  2  0  0  0  0  0  0  0  0  0
   -8.2036   -0.4961  -22.0834 C   0  0  0  0  0  0  0  0  0  0  0  0
   -8.1916    0.7189  -22.1011 O   0  0  0  0  0  0  0  0  0  0  0  0
   -7.4578   -1.2713  -21.2247 N   0  0  0  0  0  0  0  0  0  0  0  0
   -6.6598   -0.7344  -20.1933 C   0  0  0  0  0  0  0  0  0  0  0  0
   -6.8991   -1.0828  -18.8856 C   0  0  0  0  0  0  0  0  0  0  0  0
   -6.2017   -0.6178  -17.8226 N   0  0  0  0  0  0  0  0  0  0  0  0
   -5.2009    0.1938  -18.0664 C   0  0  0  0  0  0  0  0  0  0  0  0
   -4.8069    0.5912  -19.3759 C   0  0  0  0  0  0  0  0  0  0  0  0
   -3.6721    1.4214  -19.5882 C   0  0  0  0  0  0  0  0  0  0  0  0
   -3.3198    1.8120  -20.8510 C   0  0  0  0  0  0  0  0  0  0  0  0
   -4.0960    1.4019  -21.9577 C   0  0  0  0  0  0  0  0  0  0  0  0
   -5.1827    0.5791  -21.7824 C   0  0  0  0  0  0  0  0  0  0  0  0
   -5.5638    0.1422  -20.4798 C   0  0  0  0  0  0  0  0  0  0  0  0
   -5.7738    0.3064  -22.6489 H   0  0  0  0  0  0  0  0  0  0  0  0
   -3.8541    1.7539  -22.9585 H   0  0  0  0  0  0  0  0  0  0  0  0
   -2.4498    2.4448  -21.0076 H   0  0  0  0  0  0  0  0  0  0  0  0
   -3.1022    1.7408  -18.7204 H   0  0  0  0  0  0  0  0  0  0  0  0
   -4.6416    0.5702  -17.2095 H   0  0  0  0  0  0  0  0  0  0  0  0
   -7.7187   -1.7593  -18.6472 H   0  0  0  0  0  0  0  0  0  0  0  0
   -7.8072   -2.6789  -21.2886 C   0  0  0  0  0  0  0  0  0  0  0  0
   -8.4908   -2.8423  -22.6600 C   0  0  2  0  0  0  0  0  0  0  0  0
   -7.5890   -3.5384  -23.6856 C   0  0  0  0  0  0  0  0  0  0  0  0
   -8.1128   -3.6572  -24.6391 H   0  0  0  0  0  0  0  0  0  0  0  0
   -7.3322   -4.5445  -23.3357 H   0  0  0  0  0  0  0  0  0  0  0  0
   -6.6591   -2.9871  -23.8661 H   0  0  0  0  0  0  0  0  0  0  0  0
   -9.3522   -3.4997  -22.5541 H   0  0  0  0  0  0  0  0  0  0  0  0
   -6.9043   -3.2876  -21.1847 H   0  0  0  0  0  0  0  0  0  0  0  0
   -8.4965   -2.9405  -20.4750 H   0  0  0  0  0  0  0  0  0  0  0  0
  -10.5050   -1.2310  -22.8439 C   0  0  0  0  0  0  0  0  0  0  0  0
  -11.3184   -2.1073  -22.1108 C   0  0  0  0  0  0  0  0  0  0  0  0
  -12.6778   -1.8793  -21.9951 C   0  0  0  0  0  0  0  0  0  0  0  0
  -13.2664   -0.7603  -22.5804 C   0  0  0  0  0  0  0  0  0  0  0  0
  -12.4797    0.1330  -23.2862 C   0  0  0  0  0  0  0  0  0  0  0  0
  -11.1211   -0.1264  -23.4492 C   0  0  0  0  0  0  0  0  0  0  0  0
  -10.3385    0.8002  -24.3355 C   0  0  0  0  0  0  0  0  0  0  0  0
  -10.7166    1.9409  -24.5934 O   0  0  0  0  0  0  0  0  0  0  0  0
  -12.8931    1.0001  -23.7894 H   0  0  0  0  0  0  0  0  0  0  0  0
  -14.3349   -0.6125  -22.5067 H   0  0  0  0  0  0  0  0  0  0  0  0
  -13.2952   -2.5639  -21.4187 H   0  0  0  0  0  0  0  0  0  0  0  0
  -10.9313   -3.0011  -21.6261 H   0  0  0  0  0  0  0  0  0  0  0  0
   -9.1437   -1.7692  -25.1606 H   0  0  0  0  0  0  0  0  0  0  0  0
   -7.6106   -1.0101  -24.6711 H   0  0  0  0  0  0  0  0  0  0  0  0
   -9.0217    1.8948  -26.1405 H   0  0  0  0  0  0  0  0  0  0  0  0
   -7.8702    0.5636  -26.4494 H   0  0  0  0  0  0  0  0  0  0  0  0
   -8.7059    3.0787  -24.0568 H   0  0  0  0  0  0  0  0  0  0  0  0
   -7.3305    4.4307  -22.7508 H   0  0  0  0  0  0  0  0  0  0  0  0
   -5.9138    3.9184  -23.7021 H   0  0  0  0  0  0  0  0  0  0  0  0
   -6.5503    2.8564  -22.4265 H   0  0  0  0  0  0  0  0  0  0  0  0
  1  2  1  0
  2  3  1  0
  3  4  2  0
  3  5  1  0
  5  6  1  0
  6  7  1  0
  8  7  1  6
  8  9  1  0
  9 10  2  0
  9 11  1  0
 11 12  1  0
 12 13  2  0
 13 14  1  0
 14 15  2  0
 15 16  1  0
 16 17  2  0
 17 18  1  0
 18 19  2  0
 19 20  1  0
 20 21  2  0
 20 22  1  0
 19 23  1  0
 18 24  1  0
 17 25  1  0
 15 26  1  0
 13 27  1  0
 11 28  1  0
 28 29  1  0
 29 30  1  0
 30 31  1  0
 30 32  1  0
 30 33  1  0
 29 34  1  1
 28 35  1  0
 28 36  1  0
  8 37  1  0
 37 38  2  0
 38 39  1  0
 39 40  2  0
 40 41  1  0
 41 42  2  0
 42 43  1  0
 43 44  2  0
 41 45  1  0
 40 46  1  0
 39 47  1  0
 38 48  1  0
  7 49  1  0
  7 50  1  0
  5 51  1  0
  5 52  1  0
  2 53  1  0
  1 54  1  0
  1 55  1  0
  1 56  1  0
 43  6  1  0
 29  8  1  0
 42 37  1  0
 21 12  1  0
 21 16  1  0
M  END
>  <cnnaffinities>  (36) 
[5.481, 5.49477]

>  <score>  (36) 
5.481

>  <index>  (36) 
37

>  <Smiles>  (36) 
C(N(C(=O)C(N1C([C@@]2(C(=O)N(c3c(nc(c4c(c(c(c(c34)[H])[H])[H])[H])[H])[H])C([C@@]2(C([H])([H])[H])[H])([H])[H])c2c(c(c(c(c2C1=O)[H])[H])[H])[H])([H])[H])([H])[H])[H])([H])([H])[H]

>  <h>  (36) 
<NA>

>  <Training>  (36) 
True

>  <Success>  (36) 
True

>  <enamine_searched>  (36) 
False

>  <enamine_id>  (36) 
nan

$$$$

     RDKit          3D

 46 48  0  0  0  0  0  0  0  0999 V2000
   -8.1588   -4.6955  -26.5423 C   0  0  0  0  0  0  0  0  0  0  0  0
   -8.6538   -4.9604  -25.1202 C   0  0  1  0  0  0  0  0  0  0  0  0
   -7.5895   -5.5238  -24.1829 C   0  0  0  0  0  0  0  0  0  0  0  0
   -6.6142   -4.5191  -23.5546 C   0  0  1  0  0  0  0  0  0  0  0  0
   -5.4109   -4.1610  -24.4396 C   0  0  0  0  0  0  0  0  0  0  0  0
   -4.6067   -3.7392  -23.8297 H   0  0  0  0  0  0  0  0  0  0  0  0
   -5.6622   -3.4336  -25.2133 H   0  0  0  0  0  0  0  0  0  0  0  0
   -5.0144   -5.0544  -24.9389 H   0  0  0  0  0  0  0  0  0  0  0  0
   -7.3227   -3.3374  -23.0115 N   0  0  0  0  0  0  0  0  0  0  0  0
   -6.7237   -2.7026  -21.9377 C   0  0  0  0  0  0  0  0  0  0  0  0
   -5.6729   -3.1083  -21.4646 O   0  0  0  0  0  0  0  0  0  0  0  0
   -7.4079   -1.4710  -21.2804 C   0  0  0  0  0  0  0  0  0  0  0  0
   -6.5790   -0.8356  -20.1854 C   0  0  0  0  0  0  0  0  0  0  0  0
   -6.8721   -1.0494  -18.8614 C   0  0  0  0  0  0  0  0  0  0  0  0
   -6.1900   -0.5435  -17.7983 N   0  0  0  0  0  0  0  0  0  0  0  0
   -5.1577    0.2222  -18.0608 C   0  0  0  0  0  0  0  0  0  0  0  0
   -4.7222    0.5316  -19.3785 C   0  0  0  0  0  0  0  0  0  0  0  0
   -3.5928    1.3589  -19.6157 C   0  0  0  0  0  0  0  0  0  0  0  0
   -3.2110    1.6715  -20.8944 C   0  0  0  0  0  0  0  0  0  0  0  0
   -3.9835    1.2117  -21.9828 C   0  0  0  0  0  0  0  0  0  0  0  0
   -5.0662    0.3818  -21.7773 C   0  0  0  0  0  0  0  0  0  0  0  0
   -5.4594    0.0065  -20.4683 C   0  0  0  0  0  0  0  0  0  0  0  0
   -5.5419   -0.1019  -22.6264 H   0  0  0  0  0  0  0  0  0  0  0  0
   -3.5993    1.3523  -22.9891 H   0  0  0  0  0  0  0  0  0  0  0  0
   -2.3242    2.2734  -21.0843 H   0  0  0  0  0  0  0  0  0  0  0  0
   -3.0532    1.7687  -18.7646 H   0  0  0  0  0  0  0  0  0  0  0  0
   -4.6021    0.6288  -17.2138 H   0  0  0  0  0  0  0  0  0  0  0  0
   -7.7203   -1.6715  -18.5860 H   0  0  0  0  0  0  0  0  0  0  0  0
   -7.6727   -0.7117  -22.0291 H   0  0  0  0  0  0  0  0  0  0  0  0
   -8.3597   -1.8073  -20.8468 H   0  0  0  0  0  0  0  0  0  0  0  0
   -8.4091   -2.7206  -23.7945 C   0  0  1  0  0  0  0  0  0  0  0  0
   -7.9404   -1.6594  -24.8003 C   0  0  0  0  0  0  0  0  0  0  0  0
   -7.4441   -2.0868  -25.6747 H   0  0  0  0  0  0  0  0  0  0  0  0
   -8.7979   -1.0832  -25.1710 H   0  0  0  0  0  0  0  0  0  0  0  0
   -7.2449   -0.9504  -24.3424 H   0  0  0  0  0  0  0  0  0  0  0  0
   -9.3274   -3.7777  -24.4256 C   0  0  0  0  0  0  0  0  0  0  0  0
   -9.9805   -4.1691  -23.6382 H   0  0  0  0  0  0  0  0  0  0  0  0
   -9.9961   -3.2807  -25.1352 H   0  0  0  0  0  0  0  0  0  0  0  0
   -9.0340   -2.1959  -23.0652 H   0  0  0  0  0  0  0  0  0  0  0  0
   -6.1936   -5.0209  -22.6811 H   0  0  0  0  0  0  0  0  0  0  0  0
   -8.0915   -6.0574  -23.3681 H   0  0  0  0  0  0  0  0  0  0  0  0
   -7.0138   -6.2886  -24.7140 H   0  0  0  0  0  0  0  0  0  0  0  0
   -9.4279   -5.7364  -25.2246 H   0  0  0  0  0  0  0  0  0  0  0  0
   -7.9249   -5.6400  -27.0467 H   0  0  0  0  0  0  0  0  0  0  0  0
   -8.9303   -4.1954  -27.1375 H   0  0  0  0  0  0  0  0  0  0  0  0
   -7.2566   -4.0819  -26.5824 H   0  0  0  0  0  0  0  0  0  0  0  0
  1  2  1  0
  2  3  1  0
  3  4  1  0
  4  5  1  0
  5  6  1  0
  5  7  1  0
  5  8  1  0
  4  9  1  0
  9 10  1  0
 10 11  2  0
 10 12  1  0
 12 13  1  0
 13 14  2  0
 14 15  1  0
 15 16  2  0
 16 17  1  0
 17 18  2  0
 18 19  1  0
 19 20  2  0
 20 21  1  0
 21 22  2  0
 21 23  1  0
 20 24  1  0
 19 25  1  0
 18 26  1  0
 16 27  1  0
 14 28  1  0
 12 29  1  0
 12 30  1  0
  9 31  1  0
 31 32  1  0
 32 33  1  0
 32 34  1  0
 32 35  1  0
 31 36  1  0
 36 37  1  0
 36 38  1  0
 31 39  1  1
  4 40  1  1
  3 41  1  0
  3 42  1  0
  2 43  1  6
  1 44  1  0
  1 45  1  0
  1 46  1  0
 36  2  1  0
 22 13  1  0
 22 17  1  0
M  END
>  <cnnaffinities>  (37) 
[5.15774]

>  <score>  (37) 
5.15774

>  <index>  (37) 
38

>  <Smiles>  (37) 
C([C@]1(C([C@@](C([H])([H])[H])(N(C(=O)C(c2c(nc(c3c(c(c(c(c23)[H])[H])[H])[H])[H])[H])([H])[H])[C@@](C([H])([H])[H])(C1([H])[H])[H])[H])([H])[H])[H])([H])([H])[H]

>  <h>  (37) 
<NA>

>  <Training>  (37) 
True

>  <Success>  (37) 
True

>  <enamine_searched>  (37) 
False

>  <enamine_id>  (37) 
nan

$$$$

     RDKit          3D

 40 44  0  0  0  0  0  0  0  0999 V2000
   -7.2381    0.9069  -25.5945 C   0  0  0  0  0  0  0  0  0  0  0  0
   -6.5076   -0.3981  -25.3918 C   0  0  0  0  0  0  0  0  0  0  0  0
   -5.2908   -0.4839  -25.4499 O   0  0  0  0  0  0  0  0  0  0  0  0
   -7.2845   -1.4924  -25.1487 N   0  0  0  0  0  0  0  0  0  0  0  0
   -6.6429   -2.7679  -24.7690 C   0  0  0  0  0  0  0  0  0  0  0  0
   -7.8048   -3.4816  -24.0381 C   0  0  2  0  0  0  0  0  0  0  0  0
   -9.0137   -2.9649  -24.8408 C   0  0  0  0  0  0  0  0  0  0  0  0
   -8.6556   -1.4882  -24.5715 C   0  0  1  0  0  0  0  0  0  0  0  0
   -8.5326   -1.5107  -23.1019 C   0  0  0  0  0  0  0  0  0  0  0  0
   -8.1976   -0.5741  -22.0606 C   0  0  0  0  0  0  0  0  0  0  0  0
   -8.4475    0.5991  -21.8736 O   0  0  0  0  0  1  0  0  0  0  0  0
   -7.4010   -1.3614  -21.1817 N   0  0  0  0  0  0  0  0  0  0  0  0
   -6.6090   -0.7807  -20.1628 C   0  0  0  0  0  0  0  0  0  0  0  0
   -6.8930   -1.0668  -18.8519 C   0  0  0  0  0  0  0  0  0  0  0  0
   -6.1973   -0.5782  -17.7940 N   0  0  0  0  0  0  0  0  0  0  0  0
   -5.1935    0.2213  -18.0605 C   0  0  0  0  0  0  0  0  0  0  0  0
   -4.7917    0.5948  -19.3772 C   0  0  0  0  0  0  0  0  0  0  0  0
   -3.6455    1.4065  -19.5959 C   0  0  0  0  0  0  0  0  0  0  0  0
   -3.2629    1.7397  -20.8648 C   0  0  0  0  0  0  0  0  0  0  0  0
   -4.0266    1.3093  -21.9752 C   0  0  0  0  0  0  0  0  0  0  0  0
   -5.1054    0.4753  -21.7945 C   0  0  0  0  0  0  0  0  0  0  0  0
   -5.5162    0.0919  -20.4797 C   0  0  0  0  0  0  0  0  0  0  0  0
   -5.6141    0.0854  -22.6761 H   0  0  0  0  0  0  0  0  0  0  0  0
   -3.7266    1.5923  -22.9826 H   0  0  0  0  0  0  0  0  0  0  0  0
   -2.3755    2.3453  -21.0336 H   0  0  0  0  0  0  0  0  0  0  0  0
   -3.0681    1.7190  -18.7287 H   0  0  0  0  0  0  0  0  0  0  0  0
   -4.6206    0.6042  -17.2145 H   0  0  0  0  0  0  0  0  0  0  0  0
   -7.7354   -1.7142  -18.6197 H   0  0  0  0  0  0  0  0  0  0  0  0
   -7.1857   -2.6677  -21.6682 C   0  0  0  0  0  0  0  0  0  0  0  0
   -6.4124   -3.4885  -21.2444 O   0  0  0  0  0  0  0  0  0  0  0  0
   -8.0314   -2.7504  -22.7676 N   0  0  0  0  0  0  0  0  0  0  0  0
   -9.2802   -0.6963  -24.9829 H   0  0  0  0  0  0  0  0  0  0  0  0
   -9.9775   -3.2685  -24.4325 H   0  0  0  0  0  0  0  0  0  0  0  0
   -8.9582   -3.1829  -25.9090 H   0  0  0  0  0  0  0  0  0  0  0  0
   -7.6873   -4.5506  -23.8860 H   0  0  0  0  0  0  0  0  0  0  0  0
   -5.8151   -2.5661  -24.0863 H   0  0  0  0  0  0  0  0  0  0  0  0
   -6.2650   -3.2885  -25.6551 H   0  0  0  0  0  0  0  0  0  0  0  0
   -6.5001    1.6491  -25.8940 H   0  0  0  0  0  0  0  0  0  0  0  0
   -7.7109    1.2114  -24.6579 H   0  0  0  0  0  0  0  0  0  0  0  0
   -8.0202    0.8109  -26.3538 H   0  0  0  0  0  0  0  0  0  0  0  0
  1  2  1  0
  2  3  2  0
  2  4  1  0
  4  5  1  0
  5  6  1  0
  6  7  1  0
  7  8  1  0
  8  9  1  0
  9 10  2  0
 10 11  1  0
 10 12  1  0
 12 13  1  0
 13 14  2  0
 14 15  1  0
 15 16  2  0
 16 17  1  0
 17 18  2  0
 18 19  1  0
 19 20  2  0
 20 21  1  0
 21 22  2  0
 21 23  1  0
 20 24  1  0
 19 25  1  0
 18 26  1  0
 16 27  1  0
 14 28  1  0
 12 29  1  0
 29 30  2  0
 29 31  1  0
  8 32  1  1
  7 33  1  0
  7 34  1  0
  6 35  1  1
  5 36  1  0
  5 37  1  0
  1 38  1  0
  1 39  1  0
  1 40  1  0
  8  4  1  0
 31  9  1  0
 31  6  1  0
 22 13  1  0
 22 17  1  0
M  CHG  1  11  -1
M  END
>  <cnnaffinities>  (38) 
[4.90224, 4.95743]

>  <score>  (38) 
4.90224

>  <index>  (38) 
39

>  <Smiles>  (38) 
C(C(=O)N1C([C@@]2(C([C@]1(c1c([O-])n(c3c(nc(c4c(c(c(c(c34)[H])[H])[H])[H])[H])[H])c(=O)n21)[H])([H])[H])[H])([H])[H])([H])([H])[H]

>  <h>  (38) 
<NA>

>  <Training>  (38) 
True

>  <Success>  (38) 
True

>  <enamine_searched>  (38) 
False

>  <enamine_id>  (38) 
nan

$$$$

     RDKit          3D

 40 42  0  0  0  0  0  0  0  0999 V2000
   -6.3326   -4.2857  -27.2847 C   0  0  0  0  0  0  0  0  0  0  0  0
   -6.1966   -3.3802  -26.0598 C   0  0  0  0  0  0  0  0  0  0  0  0
   -7.5507   -3.0558  -25.4270 C   0  0  0  0  0  0  0  0  0  0  0  0
   -7.4096   -2.1619  -24.1927 C   0  0  0  0  0  0  0  0  0  0  0  0
   -6.4816   -2.7564  -23.2372 N   0  0  0  0  0  0  0  0  0  0  0  0
   -6.5209   -2.6298  -21.8646 C   0  0  0  0  0  0  0  0  0  0  0  0
   -5.8643   -3.3615  -21.1436 O   0  0  0  0  0  0  0  0  0  0  0  0
   -7.3683   -1.4977  -21.2747 C   0  0  0  0  0  0  0  0  0  0  0  0
   -6.6231   -0.7770  -20.1785 C   0  0  0  0  0  0  0  0  0  0  0  0
   -6.8944   -1.0505  -18.8661 C   0  0  0  0  0  0  0  0  0  0  0  0
   -6.2054   -0.5757  -17.7928 N   0  0  0  0  0  0  0  0  0  0  0  0
   -5.2013    0.2278  -18.0510 C   0  0  0  0  0  0  0  0  0  0  0  0
   -4.8029    0.6088  -19.3623 C   0  0  0  0  0  0  0  0  0  0  0  0
   -3.6540    1.4109  -19.5819 C   0  0  0  0  0  0  0  0  0  0  0  0
   -3.2835    1.7624  -20.8551 C   0  0  0  0  0  0  0  0  0  0  0  0
   -4.0726    1.3496  -21.9587 C   0  0  0  0  0  0  0  0  0  0  0  0
   -5.1585    0.5277  -21.7713 C   0  0  0  0  0  0  0  0  0  0  0  0
   -5.5398    0.1105  -20.4646 C   0  0  0  0  0  0  0  0  0  0  0  0
   -5.7264    0.1930  -22.6388 H   0  0  0  0  0  0  0  0  0  0  0  0
   -3.8000    1.6730  -22.9590 H   0  0  0  0  0  0  0  0  0  0  0  0
   -2.3978    2.3661  -21.0270 H   0  0  0  0  0  0  0  0  0  0  0  0
   -3.0650    1.7153  -18.7204 H   0  0  0  0  0  0  0  0  0  0  0  0
   -4.6258    0.5987  -17.2002 H   0  0  0  0  0  0  0  0  0  0  0  0
   -7.7248   -1.7129  -18.6220 H   0  0  0  0  0  0  0  0  0  0  0  0
   -7.6530   -0.8125  -22.0783 H   0  0  0  0  0  0  0  0  0  0  0  0
   -8.2829   -1.9533  -20.8695 H   0  0  0  0  0  0  0  0  0  0  0  0
   -5.1846   -3.1472  -23.7676 C   0  0  0  0  0  0  0  0  0  0  0  0
   -5.3101   -4.0234  -24.9949 C   0  0  0  0  0  0  0  0  0  0  0  0
   -4.3091   -4.2405  -25.3867 H   0  0  0  0  0  0  0  0  0  0  0  0
   -5.7514   -4.9846  -24.7143 H   0  0  0  0  0  0  0  0  0  0  0  0
   -4.5969   -2.2456  -24.0087 H   0  0  0  0  0  0  0  0  0  0  0  0
   -4.6865   -3.6530  -22.9444 H   0  0  0  0  0  0  0  0  0  0  0  0
   -8.3807   -2.0224  -23.7143 H   0  0  0  0  0  0  0  0  0  0  0  0
   -7.0639   -1.1682  -24.5192 H   0  0  0  0  0  0  0  0  0  0  0  0
   -8.0205   -3.9965  -25.1287 H   0  0  0  0  0  0  0  0  0  0  0  0
   -8.2246   -2.5882  -26.1548 H   0  0  0  0  0  0  0  0  0  0  0  0
   -5.7270   -2.4402  -26.3773 H   0  0  0  0  0  0  0  0  0  0  0  0
   -5.3608   -4.5065  -27.7398 H   0  0  0  0  0  0  0  0  0  0  0  0
   -6.7812   -5.2435  -27.0009 H   0  0  0  0  0  0  0  0  0  0  0  0
   -6.9669   -3.8447  -28.0607 H   0  0  0  0  0  0  0  0  0  0  0  0
  1  2  1  0
  2  3  1  0
  3  4  1  0
  4  5  1  0
  5  6  1  0
  6  7  2  0
  6  8  1  0
  8  9  1  0
  9 10  2  0
 10 11  1  0
 11 12  2  0
 12 13  1  0
 13 14  2  0
 14 15  1  0
 15 16  2  0
 16 17  1  0
 17 18  2  0
 17 19  1  0
 16 20  1  0
 15 21  1  0
 14 22  1  0
 12 23  1  0
 10 24  1  0
  8 25  1  0
  8 26  1  0
  5 27  1  0
 27 28  1  0
 28 29  1  0
 28 30  1  0
 27 31  1  0
 27 32  1  0
  4 33  1  0
  4 34  1  0
  3 35  1  0
  3 36  1  0
  2 37  1  0
  1 38  1  0
  1 39  1  0
  1 40  1  0
 28  2  1  0
 18  9  1  0
 18 13  1  0
M  END
>  <cnnaffinities>  (39) 
[4.42145, 4.42129, 4.07657, 4.07665, 4.50217]

>  <score>  (39) 
4.42145

>  <index>  (39) 
40

>  <Smiles>  (39) 
C(C1(C(C(N(C(=O)C(c2c(nc(c3c(c(c(c(c23)[H])[H])[H])[H])[H])[H])([H])[H])C(C1([H])[H])([H])[H])([H])[H])([H])[H])[H])([H])([H])[H]

>  <h>  (39) 
<NA>

>  <Training>  (39) 
True

>  <Success>  (39) 
True

>  <enamine_searched>  (39) 
False

>  <enamine_id>  (39) 
nan

$$$$

     RDKit          3D

 67 71  0  0  0  0  0  0  0  0999 V2000
  -10.7053    1.5123  -26.4302 C   0  0  0  0  0  0  0  0  0  0  0  0
  -10.6122    0.1713  -25.8857 N   0  0  0  0  0  0  0  0  0  0  0  0
  -10.0182   -0.8181  -26.6040 C   0  0  0  0  0  0  0  0  0  0  0  0
   -9.6265   -0.6573  -27.7487 O   0  0  0  0  0  0  0  0  0  0  0  0
   -9.8196   -2.1771  -25.9377 C   0  0  0  0  0  0  0  0  0  0  0  0
  -10.0970   -2.2690  -24.5132 N   0  0  0  0  0  0  0  0  0  0  0  0
   -9.2350   -1.4748  -23.6198 C   0  0  0  0  0  0  0  0  0  0  0  0
   -8.9291   -2.1148  -22.2315 C   0  0  2  0  0  0  0  0  0  0  0  0
   -8.3721   -1.0433  -21.3069 C   0  0  0  0  0  0  0  0  0  0  0  0
   -9.0228   -0.1507  -20.7976 O   0  0  0  0  0  0  0  0  0  0  0  0
   -7.0180   -1.2434  -21.1528 N   0  0  0  0  0  0  0  0  0  0  0  0
   -6.3118   -0.6396  -20.0805 C   0  0  0  0  0  0  0  0  0  0  0  0
   -6.5978   -0.9762  -18.7809 C   0  0  0  0  0  0  0  0  0  0  0  0
   -5.9118   -0.5168  -17.7052 N   0  0  0  0  0  0  0  0  0  0  0  0
   -4.9199    0.3134  -17.9288 C   0  0  0  0  0  0  0  0  0  0  0  0
   -4.5281    0.7593  -19.2256 C   0  0  0  0  0  0  0  0  0  0  0  0
   -3.4512    1.6620  -19.4307 C   0  0  0  0  0  0  0  0  0  0  0  0
   -3.1393    2.0882  -20.6929 C   0  0  0  0  0  0  0  0  0  0  0  0
   -3.8952    1.6523  -21.8030 C   0  0  0  0  0  0  0  0  0  0  0  0
   -4.9429    0.7820  -21.6319 C   0  0  0  0  0  0  0  0  0  0  0  0
   -5.2622    0.2932  -20.3396 C   0  0  0  0  0  0  0  0  0  0  0  0
   -5.5392    0.4556  -22.4788 H   0  0  0  0  0  0  0  0  0  0  0  0
   -3.6437    2.0092  -22.7963 H   0  0  0  0  0  0  0  0  0  0  0  0
   -2.3154    2.7786  -20.8488 H   0  0  0  0  0  0  0  0  0  0  0  0
   -2.8989    2.0136  -18.5630 H   0  0  0  0  0  0  0  0  0  0  0  0
   -4.3700    0.6749  -17.0581 H   0  0  0  0  0  0  0  0  0  0  0  0
   -7.4111   -1.6637  -18.5568 H   0  0  0  0  0  0  0  0  0  0  0  0
   -6.5061   -2.3732  -21.9162 C   0  0  0  0  0  0  0  0  0  0  0  0
   -7.7793   -3.1731  -22.2516 C   0  0  2  0  0  0  0  0  0  0  0  0
   -7.7293   -4.0080  -23.5266 C   0  0  0  0  0  0  0  0  0  0  0  0
   -6.5108   -5.3068  -23.5410 S   0  0  0  0  0  0  0  0  0  0  0  0
   -6.6991   -6.0602  -24.7721 O   0  0  0  0  0  0  0  0  0  0  0  0
   -5.2077   -4.7317  -23.2379 O   0  0  0  0  0  0  0  0  0  0  0  0
   -6.9467   -6.2610  -22.2185 N   0  0  0  0  0  0  0  0  0  0  0  0
   -8.2796   -6.8532  -22.3352 C   0  0  0  0  0  0  0  0  0  0  0  0
   -8.4167   -7.5287  -21.4872 H   0  0  0  0  0  0  0  0  0  0  0  0
   -8.4144   -7.4122  -23.2704 H   0  0  0  0  0  0  0  0  0  0  0  0
   -9.0408   -6.0709  -22.2569 H   0  0  0  0  0  0  0  0  0  0  0  0
   -5.9096   -7.2568  -21.9170 C   0  0  0  0  0  0  0  0  0  0  0  0
   -5.8693   -8.0660  -22.6623 H   0  0  0  0  0  0  0  0  0  0  0  0
   -4.9409   -6.7553  -21.8750 H   0  0  0  0  0  0  0  0  0  0  0  0
   -6.1265   -7.6780  -20.9312 H   0  0  0  0  0  0  0  0  0  0  0  0
   -7.4815   -3.4042  -24.4038 H   0  0  0  0  0  0  0  0  0  0  0  0
   -8.6985   -4.4808  -23.7199 H   0  0  0  0  0  0  0  0  0  0  0  0
   -7.9724   -3.8492  -21.4104 H   0  0  0  0  0  0  0  0  0  0  0  0
   -5.9860   -2.0491  -22.8290 H   0  0  0  0  0  0  0  0  0  0  0  0
   -5.7901   -2.9543  -21.3290 H   0  0  0  0  0  0  0  0  0  0  0  0
  -10.2262   -2.5996  -21.6191 C   0  0  0  0  0  0  0  0  0  0  0  0
  -10.4286   -3.9325  -21.5945 C   0  0  0  0  0  0  0  0  0  0  0  0
  -13.1016   -3.6284  -21.0526 C   0  0  0  0  0  0  0  0  0  0  0  0
  -13.4771   -4.4563  -20.0532 F   0  0  0  0  0  0  0  0  0  0  0  0
  -13.0997   -3.4117  -21.2814 C   0  0  0  0  0  0  0  0  0  0  0  0
  -12.5983   -3.8930  -22.4338 C   0  0  0  0  0  0  0  0  0  0  0  0
  -11.1228   -3.5888  -22.6937 C   0  0  0  0  0  0  0  0  0  0  0  0
  -10.8971   -3.3446  -24.1382 C   0  0  0  0  0  0  0  0  0  0  0  0
  -11.4735   -4.0395  -24.9549 O   0  0  0  0  0  0  0  0  0  0  0  0
  -13.2150   -3.4721  -23.1873 H   0  0  0  0  0  0  0  0  0  0  0  0
  -13.0297   -2.6110  -20.3812 H   0  0  0  0  0  0  0  0  0  0  0  0
  -10.7425   -1.8772  -20.9741 H   0  0  0  0  0  0  0  0  0  0  0  0
   -9.6848   -0.4945  -23.4269 H   0  0  0  0  0  0  0  0  0  0  0  0
   -8.2945   -1.2623  -24.1431 H   0  0  0  0  0  0  0  0  0  0  0  0
   -8.7840   -2.4722  -26.1717 H   0  0  0  0  0  0  0  0  0  0  0  0
  -10.4708   -2.8958  -26.4501 H   0  0  0  0  0  0  0  0  0  0  0  0
  -11.1140   -0.0810  -25.0481 H   0  0  0  0  0  0  0  0  0  0  0  0
  -10.7043    1.4502  -27.5201 H   0  0  0  0  0  0  0  0  0  0  0  0
  -11.6285    1.9868  -26.0906 H   0  0  0  0  0  0  0  0  0  0  0  0
   -9.8494    2.1271  -26.1230 H   0  0  0  0  0  0  0  0  0  0  0  0
  1  2  1  0
  2  3  1  0
  3  4  2  0
  3  5  1  0
  5  6  1  0
  6  7  1  0
  8  7  1  6
  8  9  1  0
  9 10  2  0
  9 11  1  0
 11 12  1  0
 12 13  2  0
 13 14  1  0
 14 15  2  0
 15 16  1  0
 16 17  2  0
 17 18  1  0
 18 19  2  0
 19 20  1  0
 20 21  2  0
 20 22  1  0
 19 23  1  0
 18 24  1  0
 17 25  1  0
 15 26  1  0
 13 27  1  0
 11 28  1  0
 28 29  1  0
 29 30  1  0
 30 31  1  0
 31 32  2  0
 31 33  2  0
 31 34  1  0
 34 35  1  0
 35 36  1  0
 35 37  1  0
 35 38  1  0
 34 39  1  0
 39 40  1  0
 39 41  1  0
 39 42  1  0
 30 43  1  0
 30 44  1  0
 29 45  1  1
 28 46  1  0
 28 47  1  0
  8 48  1  0
 48 49  2  0
 49 50  1  0
 50 51  1  0
 50 52  2  0
 52 53  1  0
 53 54  2  0
 54 55  1  0
 55 56  2  0
 53 57  1  0
 52 58  1  0
 49 59  1  0
  7 60  1  0
  7 61  1  0
  5 62  1  0
  5 63  1  0
  2 64  1  0
  1 65  1  0
  1 66  1  0
  1 67  1  0
 55  6  1  0
 29  8  1  0
 54 48  1  0
 21 12  1  0
 21 16  1  0
M  END
>  <cnnaffinities>  (40) 
[6.08111, 6.28377]

>  <score>  (40) 
6.08111

>  <index>  (40) 
41

>  <Smiles>  (40) 
C(N(C(=O)C(N1C([C@@]2(C(=O)N(c3c(nc(c4c(c(c(c(c34)[H])[H])[H])[H])[H])[H])C([C@@]2(C(S(=O)(=O)N(C([H])([H])[H])C([H])([H])[H])([H])[H])[H])([H])[H])c2c(c(F)c(c(c2C1=O)[H])[H])[H])([H])[H])([H])[H])[H])([H])([H])[H]

>  <h>  (40) 
<NA>

>  <Training>  (40) 
True

>  <Success>  (40) 
True

>  <enamine_searched>  (40) 
False

>  <enamine_id>  (40) 
nan

$$$$

     RDKit          3D

 67 72  0  0  0  0  0  0  0  0999 V2000
   -7.3809    3.3197  -22.0385 C   0  0  0  0  0  0  0  0  0  0  0  0
   -8.2455    2.7981  -23.0768 N   0  0  0  0  0  0  0  0  0  0  0  0
   -7.6856    2.0731  -24.0822 C   0  0  0  0  0  0  0  0  0  0  0  0
   -6.4823    1.9109  -24.1706 O   0  0  0  0  0  0  0  0  0  0  0  0
   -8.6623    1.4438  -25.0774 C   0  0  0  0  0  0  0  0  0  0  0  0
   -9.3424    0.3233  -24.4560 N   0  0  0  0  0  0  0  0  0  0  0  0
   -8.5814   -0.9000  -24.2242 C   0  0  0  0  0  0  0  0  0  0  0  0
   -9.0065   -1.6079  -22.9167 C   0  0  2  0  0  0  0  0  0  0  0  0
   -8.5044   -0.7958  -21.6985 C   0  0  0  0  0  0  0  0  0  0  0  0
   -8.9742    0.2234  -21.2294 O   0  0  0  0  0  0  0  0  0  0  0  0
   -7.3847   -1.4101  -21.2005 N   0  0  0  0  0  0  0  0  0  0  0  0
   -6.6260   -0.7990  -20.1790 C   0  0  0  0  0  0  0  0  0  0  0  0
   -6.9425   -1.0559  -18.8705 C   0  0  0  0  0  0  0  0  0  0  0  0
   -6.2600   -0.5660  -17.8108 N   0  0  0  0  0  0  0  0  0  0  0  0
   -5.2193    0.1927  -18.0631 C   0  0  0  0  0  0  0  0  0  0  0  0
   -4.7975    0.5541  -19.3760 C   0  0  0  0  0  0  0  0  0  0  0  0
   -3.6771    1.3948  -19.6009 C   0  0  0  0  0  0  0  0  0  0  0  0
   -3.3455    1.7897  -20.8701 C   0  0  0  0  0  0  0  0  0  0  0  0
   -4.1446    1.3998  -21.9667 C   0  0  0  0  0  0  0  0  0  0  0  0
   -5.2136    0.5520  -21.7807 C   0  0  0  0  0  0  0  0  0  0  0  0
   -5.5509    0.0891  -20.4780 C   0  0  0  0  0  0  0  0  0  0  0  0
   -5.8274    0.2841  -22.6348 H   0  0  0  0  0  0  0  0  0  0  0  0
   -3.9183    1.7660  -22.9650 H   0  0  0  0  0  0  0  0  0  0  0  0
   -2.4775    2.4223  -21.0360 H   0  0  0  0  0  0  0  0  0  0  0  0
   -3.1059    1.7276  -18.7399 H   0  0  0  0  0  0  0  0  0  0  0  0
   -4.6612    0.5759  -17.2086 H   0  0  0  0  0  0  0  0  0  0  0  0
   -7.7981   -1.6893  -18.6486 H   0  0  0  0  0  0  0  0  0  0  0  0
   -7.0125   -2.6211  -21.8895 C   0  0  0  0  0  0  0  0  0  0  0  0
   -8.2548   -2.9639  -22.7171 C   0  0  2  0  0  0  0  0  0  0  0  0
   -7.8112   -3.7787  -23.9327 C   0  0  0  0  0  0  0  0  0  0  0  0
   -8.9125   -4.2479  -24.7179 N   0  0  0  0  0  0  0  0  0  0  0  0
   -8.7692   -4.9296  -25.8959 C   0  0  0  0  0  0  0  0  0  0  0  0
   -7.2498   -5.2888  -26.6420 S   0  0  0  0  0  0  0  0  0  0  0  0
   -8.1275   -6.0120  -27.9627 C   0  0  0  0  0  0  0  0  0  0  0  0
   -9.4116   -6.0146  -27.8443 N   0  0  0  0  0  0  0  0  0  0  0  0
   -9.7887   -5.3952  -26.6730 C   0  0  0  0  0  0  0  0  0  0  0  0
  -11.2071   -5.1476  -26.3021 C   0  0  0  0  0  0  0  0  0  0  0  0
  -11.8901   -5.5208  -27.0659 H   0  0  0  0  0  0  0  0  0  0  0  0
  -11.3415   -4.0643  -26.1859 H   0  0  0  0  0  0  0  0  0  0  0  0
  -11.4744   -5.6025  -25.3414 H   0  0  0  0  0  0  0  0  0  0  0  0
   -7.5943   -6.3814  -28.8316 H   0  0  0  0  0  0  0  0  0  0  0  0
   -9.8513   -4.0158  -24.4235 H   0  0  0  0  0  0  0  0  0  0  0  0
   -7.1392   -3.1731  -24.5544 H   0  0  0  0  0  0  0  0  0  0  0  0
   -7.2211   -4.6338  -23.5757 H   0  0  0  0  0  0  0  0  0  0  0  0
   -8.8998   -3.6037  -22.1060 H   0  0  0  0  0  0  0  0  0  0  0  0
   -6.1408   -2.4694  -22.5442 H   0  0  0  0  0  0  0  0  0  0  0  0
   -6.7579   -3.4212  -21.1882 H   0  0  0  0  0  0  0  0  0  0  0  0
  -10.5210   -1.6778  -22.8686 C   0  0  0  0  0  0  0  0  0  0  0  0
  -11.1629   -2.5536  -21.9832 C   0  0  0  0  0  0  0  0  0  0  0  0
  -12.5415   -2.5487  -21.8640 C   0  0  0  0  0  0  0  0  0  0  0  0
  -13.2886   -3.6188  -20.7038 Cl  0  0  0  0  0  0  0  0  0  0  0  0
  -13.3313   -1.6768  -22.6138 C   0  0  0  0  0  0  0  0  0  0  0  0
  -12.7056   -0.7776  -23.4565 C   0  0  0  0  0  0  0  0  0  0  0  0
  -11.3156   -0.7566  -23.5689 C   0  0  0  0  0  0  0  0  0  0  0  0
  -10.7103    0.3306  -24.4034 C   0  0  0  0  0  0  0  0  0  0  0  0
  -11.3935    1.1799  -24.9624 O   0  0  0  0  0  0  0  0  0  0  0  0
  -13.2794   -0.0677  -24.0429 H   0  0  0  0  0  0  0  0  0  0  0  0
  -14.4128   -1.7141  -22.5238 H   0  0  0  0  0  0  0  0  0  0  0  0
  -10.6042   -3.2270  -21.3439 H   0  0  0  0  0  0  0  0  0  0  0  0
   -7.5192   -0.6406  -24.1721 H   0  0  0  0  0  0  0  0  0  0  0  0
   -8.7241   -1.5886  -25.0687 H   0  0  0  0  0  0  0  0  0  0  0  0
   -8.1064    1.1156  -25.9627 H   0  0  0  0  0  0  0  0  0  0  0  0
   -9.4272    2.1554  -25.3993 H   0  0  0  0  0  0  0  0  0  0  0  0
   -9.1877    2.5646  -22.8097 H   0  0  0  0  0  0  0  0  0  0  0  0
   -7.9579    3.9328  -21.3481 H   0  0  0  0  0  0  0  0  0  0  0  0
   -6.8971    2.5049  -21.4920 H   0  0  0  0  0  0  0  0  0  0  0  0
   -6.6076    3.9402  -22.4890 H   0  0  0  0  0  0  0  0  0  0  0  0
  1  2  1  0
  2  3  1  0
  3  4  2  0
  3  5  1  0
  5  6  1  0
  6  7  1  0
  8  7  1  6
  8  9  1  0
  9 10  2  0
  9 11  1  0
 11 12  1  0
 12 13  2  0
 13 14  1  0
 14 15  2  0
 15 16  1  0
 16 17  2  0
 17 18  1  0
 18 19  2  0
 19 20  1  0
 20 21  2  0
 20 22  1  0
 19 23  1  0
 18 24  1  0
 17 25  1  0
 15 26  1  0
 13 27  1  0
 11 28  1  0
 28 29  1  0
 29 30  1  0
 30 31  1  0
 31 32  1  0
 32 33  1  0
 33 34  1  0
 34 35  2  0
 35 36  1  0
 36 37  1  0
 37 38  1  0
 37 39  1  0
 37 40  1  0
 34 41  1  0
 31 42  1  0
 30 43  1  0
 30 44  1  0
 29 45  1  1
 28 46  1  0
 28 47  1  0
  8 48  1  0
 48 49  2  0
 49 50  1  0
 50 51  1  0
 50 52  2  0
 52 53  1  0
 53 54  2  0
 54 55  1  0
 55 56  2  0
 53 57  1  0
 52 58  1  0
 49 59  1  0
  7 60  1  0
  7 61  1  0
  5 62  1  0
  5 63  1  0
  2 64  1  0
  1 65  1  0
  1 66  1  0
  1 67  1  0
 55  6  1  0
 29  8  1  0
 36 32  2  0
 54 48  1  0
 21 12  1  0
 21 16  1  0
M  END
>  <cnnaffinities>  (41) 
[5.96307]

>  <score>  (41) 
5.96307

>  <index>  (41) 
43

>  <Smiles>  (41) 
C(N(C(=O)C(N1C([C@@]2(C(=O)N(c3c(nc(c4c(c(c(c(c34)[H])[H])[H])[H])[H])[H])C([C@@]2(C(N(c2sc(nc2C([H])([H])[H])[H])[H])([H])[H])[H])([H])[H])c2c(c(Cl)c(c(c2C1=O)[H])[H])[H])([H])[H])([H])[H])[H])([H])([H])[H]

>  <h>  (41) 
<NA>

>  <Training>  (41) 
True

>  <Success>  (41) 
True

>  <enamine_searched>  (41) 
False

>  <enamine_id>  (41) 
nan

$$$$

     RDKit          3D

 60 64  0  0  0  0  0  0  0  0999 V2000
   -7.4198    3.4227  -21.8577 C   0  0  0  0  0  0  0  0  0  0  0  0
   -8.2964    2.9536  -22.9136 N   0  0  0  0  0  0  0  0  0  0  0  0
   -7.7388    2.2139  -23.9133 C   0  0  0  0  0  0  0  0  0  0  0  0
   -6.5345    2.0584  -24.0240 O   0  0  0  0  0  0  0  0  0  0  0  0
   -8.7154    1.6003  -24.9107 C   0  0  0  0  0  0  0  0  0  0  0  0
   -9.4112    0.4639  -24.3549 N   0  0  0  0  0  0  0  0  0  0  0  0
   -8.6760   -0.7728  -24.1843 C   0  0  0  0  0  0  0  0  0  0  0  0
   -9.0583   -1.4917  -22.8761 C   0  0  2  0  0  0  0  0  0  0  0  0
   -8.5160   -0.7182  -21.6584 C   0  0  0  0  0  0  0  0  0  0  0  0
   -8.9587    0.2974  -21.1673 O   0  0  0  0  0  0  0  0  0  0  0  0
   -7.4000   -1.3685  -21.1926 N   0  0  0  0  0  0  0  0  0  0  0  0
   -6.6153   -0.7856  -20.1679 C   0  0  0  0  0  0  0  0  0  0  0  0
   -6.9203   -1.0452  -18.8567 C   0  0  0  0  0  0  0  0  0  0  0  0
   -6.2160   -0.5682  -17.8017 N   0  0  0  0  0  0  0  0  0  0  0  0
   -5.1936    0.2119  -18.0630 C   0  0  0  0  0  0  0  0  0  0  0  0
   -4.7814    0.5759  -19.3771 C   0  0  0  0  0  0  0  0  0  0  0  0
   -3.6465    1.3961  -19.6150 C   0  0  0  0  0  0  0  0  0  0  0  0
   -3.2839    1.7339  -20.8917 C   0  0  0  0  0  0  0  0  0  0  0  0
   -4.0603    1.3010  -21.9916 C   0  0  0  0  0  0  0  0  0  0  0  0
   -5.1415    0.4717  -21.7914 C   0  0  0  0  0  0  0  0  0  0  0  0
   -5.5189    0.0755  -20.4775 C   0  0  0  0  0  0  0  0  0  0  0  0
   -5.7063    0.1157  -22.6488 H   0  0  0  0  0  0  0  0  0  0  0  0
   -3.7856    1.5923  -23.0027 H   0  0  0  0  0  0  0  0  0  0  0  0
   -2.4023    2.3479  -21.0683 H   0  0  0  0  0  0  0  0  0  0  0  0
   -3.0701    1.7339  -18.7570 H   0  0  0  0  0  0  0  0  0  0  0  0
   -4.6165    0.5867  -17.2158 H   0  0  0  0  0  0  0  0  0  0  0  0
   -7.7788   -1.6721  -18.6176 H   0  0  0  0  0  0  0  0  0  0  0  0
   -7.0613   -2.5760  -21.9161 C   0  0  0  0  0  0  0  0  0  0  0  0
   -8.3274   -2.8598  -22.7481 C   0  0  2  0  0  0  0  0  0  0  0  0
   -8.0081   -3.6082  -24.0509 C   0  0  0  0  0  0  0  0  0  0  0  0
   -7.4510   -4.8821  -23.7944 O   0  0  0  0  0  0  0  0  0  0  0  0
   -8.3788   -5.9383  -23.8563 C   0  0  0  0  0  0  0  0  0  0  0  0
   -9.2446   -5.7775  -23.1906 H   0  0  0  0  0  0  0  0  0  0  0  0
   -7.8548   -6.8445  -23.5382 H   0  0  0  0  0  0  0  0  0  0  0  0
   -8.7529   -6.0965  -24.8824 H   0  0  0  0  0  0  0  0  0  0  0  0
   -7.2480   -3.0503  -24.6139 H   0  0  0  0  0  0  0  0  0  0  0  0
   -8.8984   -3.6995  -24.6973 H   0  0  0  0  0  0  0  0  0  0  0  0
   -8.9734   -3.5213  -22.1672 H   0  0  0  0  0  0  0  0  0  0  0  0
   -6.8209   -3.3895  -21.2256 H   0  0  0  0  0  0  0  0  0  0  0  0
   -6.1891   -2.4133  -22.5661 H   0  0  0  0  0  0  0  0  0  0  0  0
  -10.5688   -1.5508  -22.8077 C   0  0  0  0  0  0  0  0  0  0  0  0
  -11.1941   -2.4565  -21.9485 C   0  0  0  0  0  0  0  0  0  0  0  0
  -12.5724   -2.4699  -21.8433 C   0  0  0  0  0  0  0  0  0  0  0  0
  -13.2979   -3.5718  -20.7034 Cl  0  0  0  0  0  0  0  0  0  0  0  0
  -13.3775   -1.5985  -22.5802 C   0  0  0  0  0  0  0  0  0  0  0  0
  -12.7647   -0.6664  -23.3952 C   0  0  0  0  0  0  0  0  0  0  0  0
  -11.3751   -0.6245  -23.4837 C   0  0  0  0  0  0  0  0  0  0  0  0
  -10.7751    0.4968  -24.2670 C   0  0  0  0  0  0  0  0  0  0  0  0
  -11.4565    1.3892  -24.7558 O   0  0  0  0  0  0  0  0  0  0  0  0
  -13.3308    0.0622  -23.9679 H   0  0  0  0  0  0  0  0  0  0  0  0
  -14.4564   -1.6628  -22.4878 H   0  0  0  0  0  0  0  0  0  0  0  0
  -10.6133   -3.1473  -21.3461 H   0  0  0  0  0  0  0  0  0  0  0  0
   -7.6083   -0.5341  -24.1962 H   0  0  0  0  0  0  0  0  0  0  0  0
   -8.8987   -1.4447  -25.0215 H   0  0  0  0  0  0  0  0  0  0  0  0
   -8.1232    1.3054  -25.7823 H   0  0  0  0  0  0  0  0  0  0  0  0
   -9.4891    2.3178  -25.1898 H   0  0  0  0  0  0  0  0  0  0  0  0
   -9.2545    2.7635  -22.6603 H   0  0  0  0  0  0  0  0  0  0  0  0
   -6.6640    4.0804  -22.2816 H   0  0  0  0  0  0  0  0  0  0  0  0
   -6.8955    2.5841  -21.3878 H   0  0  0  0  0  0  0  0  0  0  0  0
   -7.9800    3.9732  -21.1004 H   0  0  0  0  0  0  0  0  0  0  0  0
  1  2  1  0
  2  3  1  0
  3  4  2  0
  3  5  1  0
  5  6  1  0
  6  7  1  0
  8  7  1  6
  8  9  1  0
  9 10  2  0
  9 11  1  0
 11 12  1  0
 12 13  2  0
 13 14  1  0
 14 15  2  0
 15 16  1  0
 16 17  2  0
 17 18  1  0
 18 19  2  0
 19 20  1  0
 20 21  2  0
 20 22  1  0
 19 23  1  0
 18 24  1  0
 17 25  1  0
 15 26  1  0
 13 27  1  0
 11 28  1  0
 28 29  1  0
 29 30  1  0
 30 31  1  0
 31 32  1  0
 32 33  1  0
 32 34  1  0
 32 35  1  0
 30 36  1  0
 30 37  1  0
 29 38  1  1
 28 39  1  0
 28 40  1  0
  8 41  1  0
 41 42  2  0
 42 43  1  0
 43 44  1  0
 43 45  2  0
 45 46  1  0
 46 47  2  0
 47 48  1  0
 48 49  2  0
 46 50  1  0
 45 51  1  0
 42 52  1  0
  7 53  1  0
  7 54  1  0
  5 55  1  0
  5 56  1  0
  2 57  1  0
  1 58  1  0
  1 59  1  0
  1 60  1  0
 48  6  1  0
 29  8  1  0
 47 41  1  0
 21 12  1  0
 21 16  1  0
M  END
>  <cnnaffinities>  (42) 
[5.7119, 5.60813, 6.04522, 6.09416]

>  <score>  (42) 
5.7119

>  <index>  (42) 
44

>  <Smiles>  (42) 
C(N(C(=O)C(N1C([C@@]2(C(=O)N(c3c(nc(c4c(c(c(c(c34)[H])[H])[H])[H])[H])[H])C([C@@]2(C(OC([H])([H])[H])([H])[H])[H])([H])[H])c2c(c(Cl)c(c(c2C1=O)[H])[H])[H])([H])[H])([H])[H])[H])([H])([H])[H]

>  <h>  (42) 
<NA>

>  <Training>  (42) 
True

>  <Success>  (42) 
True

>  <enamine_searched>  (42) 
False

>  <enamine_id>  (42) 
nan

$$$$

     RDKit          3D

 66 71  0  0  0  0  0  0  0  0999 V2000
   -7.9697    2.5670  -21.9618 C   0  0  0  0  0  0  0  0  0  0  0  0
   -8.8763    2.2157  -23.0389 N   0  0  0  0  0  0  0  0  0  0  0  0
   -8.3945    1.5762  -24.1343 C   0  0  0  0  0  0  0  0  0  0  0  0
   -7.2003    1.4086  -24.3544 O   0  0  0  0  0  0  0  0  0  0  0  0
   -9.4731    0.9743  -25.0475 C   0  0  0  0  0  0  0  0  0  0  0  0
  -10.0926   -0.1179  -24.3197 N   0  0  0  0  0  0  0  0  0  0  0  0
   -9.2940   -1.3123  -24.1135 C   0  0  0  0  0  0  0  0  0  0  0  0
   -9.4562   -1.9142  -22.6930 C   0  0  2  0  0  0  0  0  0  0  0  0
   -8.9096   -0.9536  -21.6019 C   0  0  0  0  0  0  0  0  0  0  0  0
   -9.5336   -0.0797  -21.0341 O   0  0  0  0  0  0  0  0  0  0  0  0
   -7.5973   -1.2865  -21.3521 N   0  0  0  0  0  0  0  0  0  0  0  0
   -6.8496   -0.7324  -20.2797 C   0  0  0  0  0  0  0  0  0  0  0  0
   -7.1565   -1.0583  -18.9793 C   0  0  0  0  0  0  0  0  0  0  0  0
   -6.4289   -0.6592  -17.9094 N   0  0  0  0  0  0  0  0  0  0  0  0
   -5.3832    0.0987  -18.1315 C   0  0  0  0  0  0  0  0  0  0  0  0
   -4.9758    0.5457  -19.4204 C   0  0  0  0  0  0  0  0  0  0  0  0
   -3.8714    1.4211  -19.6047 C   0  0  0  0  0  0  0  0  0  0  0  0
   -3.5231    1.8489  -20.8569 C   0  0  0  0  0  0  0  0  0  0  0  0
   -4.2519    1.4112  -21.9799 C   0  0  0  0  0  0  0  0  0  0  0  0
   -5.3218    0.5561  -21.8266 C   0  0  0  0  0  0  0  0  0  0  0  0
   -5.7206    0.1087  -20.5392 C   0  0  0  0  0  0  0  0  0  0  0  0
   -5.8888    0.2475  -22.6986 H   0  0  0  0  0  0  0  0  0  0  0  0
   -3.9802    1.7646  -22.9698 H   0  0  0  0  0  0  0  0  0  0  0  0
   -2.6816    2.5232  -20.9935 H   0  0  0  0  0  0  0  0  0  0  0  0
   -3.3182    1.7398  -18.7262 H   0  0  0  0  0  0  0  0  0  0  0  0
   -4.7966    0.4009  -17.2638 H   0  0  0  0  0  0  0  0  0  0  0  0
   -8.0108   -1.6958  -18.7587 H   0  0  0  0  0  0  0  0  0  0  0  0
   -7.1704   -2.4623  -22.0891 C   0  0  0  0  0  0  0  0  0  0  0  0
   -8.5034   -3.1312  -22.4737 C   0  0  2  0  0  0  0  0  0  0  0  0
   -8.3585   -4.1301  -23.6341 C   0  0  0  0  0  0  0  0  0  0  0  0
   -7.4654   -5.3206  -23.3491 C   0  0  0  0  0  0  0  0  0  0  0  0
   -6.0945   -5.2725  -23.6219 C   0  0  0  0  0  0  0  0  0  0  0  0
   -5.2846   -6.3927  -23.4519 C   0  0  0  0  0  0  0  0  0  0  0  0
   -5.8295   -7.5853  -22.9813 C   0  0  0  0  0  0  0  0  0  0  0  0
   -7.1826   -7.6339  -22.6592 C   0  0  0  0  0  0  0  0  0  0  0  0
   -7.9883   -6.5122  -22.8423 C   0  0  0  0  0  0  0  0  0  0  0  0
   -9.0485   -6.5777  -22.6103 H   0  0  0  0  0  0  0  0  0  0  0  0
   -7.6215   -8.5571  -22.2860 H   0  0  0  0  0  0  0  0  0  0  0  0
   -5.2025   -8.4684  -22.8646 H   0  0  0  0  0  0  0  0  0  0  0  0
   -4.2287   -6.3423  -23.7095 H   0  0  0  0  0  0  0  0  0  0  0  0
   -5.6552   -4.3451  -23.9893 H   0  0  0  0  0  0  0  0  0  0  0  0
   -9.3595   -4.4750  -23.9193 H   0  0  0  0  0  0  0  0  0  0  0  0
   -7.9543   -3.5993  -24.5066 H   0  0  0  0  0  0  0  0  0  0  0  0
   -8.8618   -3.6653  -21.5822 H   0  0  0  0  0  0  0  0  0  0  0  0
   -6.5352   -3.1044  -21.4768 H   0  0  0  0  0  0  0  0  0  0  0  0
   -6.5879   -2.1758  -22.9820 H   0  0  0  0  0  0  0  0  0  0  0  0
  -10.9406   -2.0712  -22.4663 C   0  0  0  0  0  0  0  0  0  0  0  0
  -11.5023   -3.0993  -21.7087 C   0  0  0  0  0  0  0  0  0  0  0  0
  -12.8268   -3.0008  -21.3114 C   0  0  0  0  0  0  0  0  0  0  0  0
  -13.5133   -4.2072  -20.2832 Cl  0  0  0  0  0  0  0  0  0  0  0  0
  -13.6386   -1.9205  -21.6484 C   0  0  0  0  0  0  0  0  0  0  0  0
  -13.0990   -0.9305  -22.4331 C   0  0  0  0  0  0  0  0  0  0  0  0
  -11.7816   -1.0148  -22.8620 C   0  0  0  0  0  0  0  0  0  0  0  0
  -11.2798    0.1102  -23.7017 C   0  0  0  0  0  0  0  0  0  0  0  0
  -11.8707    1.1857  -23.8054 O   0  0  0  0  0  0  0  0  0  0  0  0
  -13.6822   -0.0684  -22.7313 H   0  0  0  0  0  0  0  0  0  0  0  0
  -14.6564   -1.8647  -21.2774 H   0  0  0  0  0  0  0  0  0  0  0  0
  -10.9112   -3.9521  -21.3890 H   0  0  0  0  0  0  0  0  0  0  0  0
   -8.2478   -1.0417  -24.2894 H   0  0  0  0  0  0  0  0  0  0  0  0
   -9.5862   -2.0644  -24.8565 H   0  0  0  0  0  0  0  0  0  0  0  0
   -9.0188    0.6045  -25.9733 H   0  0  0  0  0  0  0  0  0  0  0  0
  -10.2717    1.6782  -25.2951 H   0  0  0  0  0  0  0  0  0  0  0  0
   -9.8612    2.1041  -22.8087 H   0  0  0  0  0  0  0  0  0  0  0  0
   -8.2306    3.5186  -21.4866 H   0  0  0  0  0  0  0  0  0  0  0  0
   -7.9289    1.7703  -21.2050 H   0  0  0  0  0  0  0  0  0  0  0  0
   -6.9832    2.6984  -22.4073 H   0  0  0  0  0  0  0  0  0  0  0  0
  1  2  1  0
  2  3  1  0
  3  4  2  0
  3  5  1  0
  5  6  1  0
  6  7  1  0
  8  7  1  6
  8  9  1  0
  9 10  2  0
  9 11  1  0
 11 12  1  0
 12 13  2  0
 13 14  1  0
 14 15  2  0
 15 16  1  0
 16 17  2  0
 17 18  1  0
 18 19  2  0
 19 20  1  0
 20 21  2  0
 20 22  1  0
 19 23  1  0
 18 24  1  0
 17 25  1  0
 15 26  1  0
 13 27  1  0
 11 28  1  0
 28 29  1  0
 29 30  1  0
 30 31  1  0
 31 32  2  0
 32 33  1  0
 33 34  2  0
 34 35  1  0
 35 36  2  0
 36 37  1  0
 35 38  1  0
 34 39  1  0
 33 40  1  0
 32 41  1  0
 30 42  1  0
 30 43  1  0
 29 44  1  1
 28 45  1  0
 28 46  1  0
  8 47  1  0
 47 48  2  0
 48 49  1  0
 49 50  1  0
 49 51  2  0
 51 52  1  0
 52 53  2  0
 53 54  1  0
 54 55  2  0
 52 56  1  0
 51 57  1  0
 48 58  1  0
  7 59  1  0
  7 60  1  0
  5 61  1  0
  5 62  1  0
  2 63  1  0
  1 64  1  0
  1 65  1  0
  1 66  1  0
 54  6  1  0
 29  8  1  0
 36 31  1  0
 53 47  1  0
 21 12  1  0
 21 16  1  0
M  END
>  <cnnaffinities>  (43) 
[6.95047]

>  <score>  (43) 
6.95047

>  <index>  (43) 
45

>  <Smiles>  (43) 
C(N(C(=O)C(N1C([C@@]2(C(=O)N(c3c(nc(c4c(c(c(c(c34)[H])[H])[H])[H])[H])[H])C([C@@]2(C(c2c(c(c(c(c2[H])[H])[H])[H])[H])([H])[H])[H])([H])[H])c2c(c(Cl)c(c(c2C1=O)[H])[H])[H])([H])[H])([H])[H])[H])([H])([H])[H]

>  <h>  (43) 
<NA>

>  <Training>  (43) 
True

>  <Success>  (43) 
True

>  <enamine_searched>  (43) 
False

>  <enamine_id>  (43) 
nan

$$$$

     RDKit          3D

 50 54  0  0  0  0  0  0  0  0999 V2000
  -10.3677   -1.0841  -23.3673 C   0  0  0  0  0  0  0  0  0  0  0  0
   -8.9340   -1.4258  -22.9906 C   0  0  1  0  0  0  0  0  0  0  0  0
   -8.3989   -0.4701  -21.9151 C   0  0  0  0  0  0  0  0  0  0  0  0
   -7.3794   -1.2519  -21.2482 N   0  0  0  0  0  0  0  0  0  0  0  0
   -6.6108   -0.7452  -20.1767 C   0  0  0  0  0  0  0  0  0  0  0  0
   -6.8907   -1.0816  -18.8760 C   0  0  0  0  0  0  0  0  0  0  0  0
   -6.2074   -0.5958  -17.8083 N   0  0  0  0  0  0  0  0  0  0  0  0
   -5.2050    0.2165  -18.0476 C   0  0  0  0  0  0  0  0  0  0  0  0
   -4.7925    0.6168  -19.3519 C   0  0  0  0  0  0  0  0  0  0  0  0
   -3.6692    1.4535  -19.5770 C   0  0  0  0  0  0  0  0  0  0  0  0
   -3.3358    1.8372  -20.8475 C   0  0  0  0  0  0  0  0  0  0  0  0
   -4.1225    1.4290  -21.9500 C   0  0  0  0  0  0  0  0  0  0  0  0
   -5.2047    0.6076  -21.7604 C   0  0  0  0  0  0  0  0  0  0  0  0
   -5.5434    0.1609  -20.4549 C   0  0  0  0  0  0  0  0  0  0  0  0
   -5.7953    0.2681  -22.6066 H   0  0  0  0  0  0  0  0  0  0  0  0
   -3.8498    1.7419  -22.9545 H   0  0  0  0  0  0  0  0  0  0  0  0
   -2.4588    2.4539  -21.0234 H   0  0  0  0  0  0  0  0  0  0  0  0
   -3.0869    1.7708  -18.7165 H   0  0  0  0  0  0  0  0  0  0  0  0
   -4.6588    0.6054  -17.1876 H   0  0  0  0  0  0  0  0  0  0  0  0
   -7.7011   -1.7717  -18.6409 H   0  0  0  0  0  0  0  0  0  0  0  0
   -7.4792   -2.6062  -21.4869 C   0  0  0  0  0  0  0  0  0  0  0  0
   -6.6761   -3.4106  -21.0507 O   0  0  0  0  0  0  0  0  0  0  0  0
   -8.7182   -2.8582  -22.3752 C   0  0  1  0  0  0  0  0  0  0  0  0
   -9.9103   -3.2871  -21.4739 C   0  0  0  0  0  0  0  0  0  0  0  0
  -11.0796   -3.7275  -22.2369 N   0  0  0  0  0  0  0  0  0  0  0  0
  -12.4468   -3.4993  -21.7872 C   0  0  0  0  0  0  0  0  0  0  0  0
  -13.0486   -2.2409  -22.2703 C   0  0  0  0  0  0  0  0  0  0  0  0
  -13.5769   -1.2952  -22.6847 N   0  0  0  0  0  0  0  0  0  0  0  0
  -12.5035   -3.5307  -20.7000 H   0  0  0  0  0  0  0  0  0  0  0  0
  -13.0653   -4.3015  -22.1968 H   0  0  0  0  0  0  0  0  0  0  0  0
  -10.9324   -4.5715  -23.3073 C   0  0  0  0  0  0  0  0  0  0  0  0
  -11.8829   -5.1173  -23.8451 O   0  0  0  0  0  0  0  0  0  0  0  0
   -9.5370   -4.7610  -23.8072 C   0  0  0  0  0  0  0  0  0  0  0  0
   -9.3324   -5.7555  -24.7606 C   0  0  0  0  0  0  0  0  0  0  0  0
   -8.0906   -5.9348  -25.3400 C   0  0  0  0  0  0  0  0  0  0  0  0
   -7.0576   -5.0895  -24.9453 C   0  0  0  0  0  0  0  0  0  0  0  0
   -5.8502   -5.2383  -25.5148 F   0  0  0  0  0  0  0  0  0  0  0  0
   -7.2208   -4.1065  -23.9883 C   0  0  0  0  0  0  0  0  0  0  0  0
   -8.4806   -3.9409  -23.3978 C   0  0  0  0  0  0  0  0  0  0  0  0
   -6.3628   -3.5145  -23.6781 H   0  0  0  0  0  0  0  0  0  0  0  0
   -7.9039   -6.7065  -26.0815 H   0  0  0  0  0  0  0  0  0  0  0  0
  -10.1809   -6.3733  -25.0329 H   0  0  0  0  0  0  0  0  0  0  0  0
   -9.5610   -4.0803  -20.8026 H   0  0  0  0  0  0  0  0  0  0  0  0
  -10.1867   -2.4312  -20.8575 H   0  0  0  0  0  0  0  0  0  0  0  0
   -9.1967   -0.1919  -21.2099 H   0  0  0  0  0  0  0  0  0  0  0  0
   -8.0029    0.4703  -22.3139 H   0  0  0  0  0  0  0  0  0  0  0  0
   -8.2810   -1.3757  -23.8744 H   0  0  0  0  0  0  0  0  0  0  0  0
  -10.4507   -0.1338  -23.9002 H   0  0  0  0  0  0  0  0  0  0  0  0
  -10.9735   -0.9906  -22.4621 H   0  0  0  0  0  0  0  0  0  0  0  0
  -10.8160   -1.8676  -23.9833 H   0  0  0  0  0  0  0  0  0  0  0  0
  1  2  1  0
  2  3  1  0
  3  4  1  0
  4  5  1  0
  5  6  2  0
  6  7  1  0
  7  8  2  0
  8  9  1  0
  9 10  2  0
 10 11  1  0
 11 12  2  0
 12 13  1  0
 13 14  2  0
 13 15  1  0
 12 16  1  0
 11 17  1  0
 10 18  1  0
  8 19  1  0
  6 20  1  0
  4 21  1  0
 21 22  2  0
 21 23  1  0
 23 24  1  1
 24 25  1  0
 25 26  1  0
 26 27  1  0
 27 28  3  0
 26 29  1  0
 26 30  1  0
 25 31  1  0
 31 32  2  0
 31 33  1  0
 33 34  2  0
 34 35  1  0
 35 36  2  0
 36 37  1  0
 36 38  1  0
 38 39  2  0
 38 40  1  0
 35 41  1  0
 34 42  1  0
 24 43  1  0
 24 44  1  0
  3 45  1  0
  3 46  1  0
  2 47  1  6
  1 48  1  0
  1 49  1  0
  1 50  1  0
 23  2  1  0
 39 33  1  0
 14  5  1  0
 39 23  1  0
 14  9  1  0
M  END
>  <cnnaffinities>  (44) 
[6.17302]

>  <score>  (44) 
6.17302

>  <index>  (44) 
46

>  <Smiles>  (44) 
C([C@]1(C(N(c2c(nc(c3c(c(c(c(c23)[H])[H])[H])[H])[H])[H])C(=O)[C@]21C(N(C(C#N)([H])[H])C(=O)c1c(c(c(F)c(c21)[H])[H])[H])([H])[H])([H])[H])[H])([H])([H])[H]

>  <h>  (44) 
<NA>

>  <Training>  (44) 
True

>  <Success>  (44) 
True

>  <enamine_searched>  (44) 
False

>  <enamine_id>  (44) 
nan

$$$$

     RDKit          3D

 58 63  0  0  0  0  0  0  0  0999 V2000
   -8.6713    0.6957  -21.1499 O   0  0  0  0  0  0  0  0  0  0  0  0
   -8.3901   -0.2865  -21.8080 C   0  0  0  0  0  0  0  0  0  0  0  0
   -7.4773   -1.3751  -21.2287 C   0  0  0  0  0  0  0  0  0  0  0  0
   -6.6304   -0.7927  -20.1398 C   0  0  0  0  0  0  0  0  0  0  0  0
   -6.9117   -1.0617  -18.8286 C   0  0  0  0  0  0  0  0  0  0  0  0
   -6.2319   -0.5676  -17.7627 N   0  0  0  0  0  0  0  0  0  0  0  0
   -5.2066    0.2050  -18.0305 C   0  0  0  0  0  0  0  0  0  0  0  0
   -4.8012    0.5679  -19.3425 C   0  0  0  0  0  0  0  0  0  0  0  0
   -3.6694    1.3921  -19.5581 C   0  0  0  0  0  0  0  0  0  0  0  0
   -3.3337    1.7923  -20.8194 C   0  0  0  0  0  0  0  0  0  0  0  0
   -4.1448    1.4164  -21.9132 C   0  0  0  0  0  0  0  0  0  0  0  0
   -5.2499    0.6170  -21.7342 C   0  0  0  0  0  0  0  0  0  0  0  0
   -5.5790    0.1253  -20.4366 C   0  0  0  0  0  0  0  0  0  0  0  0
   -5.8528    0.3704  -22.6047 H   0  0  0  0  0  0  0  0  0  0  0  0
   -3.8832    1.7520  -22.9113 H   0  0  0  0  0  0  0  0  0  0  0  0
   -2.4561    2.4078  -20.9860 H   0  0  0  0  0  0  0  0  0  0  0  0
   -3.0931    1.7170  -18.6952 H   0  0  0  0  0  0  0  0  0  0  0  0
   -4.6490    0.5996  -17.1824 H   0  0  0  0  0  0  0  0  0  0  0  0
   -7.7396   -1.7237  -18.5718 H   0  0  0  0  0  0  0  0  0  0  0  0
   -6.8467   -1.8092  -22.0092 H   0  0  0  0  0  0  0  0  0  0  0  0
   -8.1087   -2.1735  -20.8165 H   0  0  0  0  0  0  0  0  0  0  0  0
   -8.8232   -0.4151  -23.1120 N   0  0  0  0  0  0  0  0  0  0  0  0
   -9.1446    0.8496  -23.7851 C   0  0  0  0  0  0  0  0  0  0  0  0
   -7.8735    1.6318  -24.0567 C   0  0  0  0  0  0  0  0  0  0  0  0
   -7.5461    2.7308  -23.2643 C   0  0  0  0  0  0  0  0  0  0  0  0
   -6.3836    3.4506  -23.5069 C   0  0  0  0  0  0  0  0  0  0  0  0
   -5.5020    3.0584  -24.5101 C   0  0  0  0  0  0  0  0  0  0  0  0
   -5.7910    1.9041  -25.2312 C   0  0  0  0  0  0  0  0  0  0  0  0
   -4.6192    1.3147  -26.3796 Cl  0  0  0  0  0  0  0  0  0  0  0  0
   -6.9687    1.1962  -25.0271 C   0  0  0  0  0  0  0  0  0  0  0  0
   -7.1503    0.3041  -25.6226 H   0  0  0  0  0  0  0  0  0  0  0  0
   -4.5868    3.6118  -24.6970 H   0  0  0  0  0  0  0  0  0  0  0  0
   -6.1510    4.3154  -22.8924 H   0  0  0  0  0  0  0  0  0  0  0  0
   -8.1981    3.0126  -22.4410 H   0  0  0  0  0  0  0  0  0  0  0  0
   -9.8053    1.4247  -23.1278 H   0  0  0  0  0  0  0  0  0  0  0  0
   -9.6751    0.6313  -24.7151 H   0  0  0  0  0  0  0  0  0  0  0  0
   -9.0780   -1.6801  -23.7360 C   0  0  2  0  0  0  0  0  0  0  0  0
  -10.1945   -2.5455  -23.1166 C   0  0  0  0  0  0  0  0  0  0  0  0
  -10.1551   -3.7192  -24.0876 N   0  0  1  0  0  4  0  0  0  0  0  0
  -11.4253   -4.1032  -24.7079 C   0  0  0  0  0  0  0  0  0  0  0  0
  -11.6919   -5.5682  -24.8343 C   0  0  0  0  0  0  0  0  0  0  0  0
  -12.4366   -4.7441  -23.8133 C   0  0  0  0  0  0  0  0  0  0  0  0
  -12.1458   -4.8234  -22.7712 H   0  0  0  0  0  0  0  0  0  0  0  0
  -13.4926   -4.5602  -23.9579 H   0  0  0  0  0  0  0  0  0  0  0  0
  -10.8986   -6.2255  -24.4972 H   0  0  0  0  0  0  0  0  0  0  0  0
  -12.2291   -5.9267  -25.7018 H   0  0  0  0  0  0  0  0  0  0  0  0
  -11.7568   -3.4566  -25.5122 H   0  0  0  0  0  0  0  0  0  0  0  0
   -9.1067   -3.2254  -25.0422 C   0  0  2  0  0  0  0  0  0  0  0  0
   -8.0233   -2.7708  -24.0653 C   0  0  0  0  0  0  0  0  0  0  0  0
   -7.8119   -3.4955  -23.2691 H   0  0  0  0  0  0  0  0  0  0  0  0
   -7.1143   -2.4089  -24.5435 H   0  0  0  0  0  0  0  0  0  0  0  0
   -9.4739   -1.7538  -25.2240 C   0  0  0  0  0  0  0  0  0  0  0  0
  -10.5214   -1.5198  -25.4428 H   0  0  0  0  0  0  0  0  0  0  0  0
   -8.7909   -1.2431  -25.8989 H   0  0  0  0  0  0  0  0  0  0  0  0
   -8.9192   -3.8916  -25.8757 H   0  0  0  0  0  0  0  0  0  0  0  0
   -9.7834   -4.5533  -23.5903 H   0  0  0  0  0  0  0  0  0  0  0  0
  -11.1781   -2.0813  -23.1602 H   0  0  0  0  0  0  0  0  0  0  0  0
   -9.9896   -2.8808  -22.0984 H   0  0  0  0  0  0  0  0  0  0  0  0
  1  2  2  0
  2  3  1  0
  3  4  1  0
  4  5  2  0
  5  6  1  0
  6  7  2  0
  7  8  1  0
  8  9  2  0
  9 10  1  0
 10 11  2  0
 11 12  1  0
 12 13  2  0
 12 14  1  0
 11 15  1  0
 10 16  1  0
  9 17  1  0
  7 18  1  0
  5 19  1  0
  3 20  1  0
  3 21  1  0
  2 22  1  0
 22 23  1  0
 23 24  1  0
 24 25  2  0
 25 26  1  0
 26 27  2  0
 27 28  1  0
 28 29  1  0
 28 30  2  0
 30 31  1  0
 27 32  1  0
 26 33  1  0
 25 34  1  0
 23 35  1  0
 23 36  1  0
 37 22  1  1
 37 38  1  0
 38 39  1  0
 39 40  1  0
 40 41  1  0
 41 42  1  0
 42 43  1  0
 42 44  1  0
 41 45  1  0
 41 46  1  0
 40 47  1  0
 39 48  1  0
 48 49  1  0
 49 50  1  0
 49 51  1  0
 48 52  1  0
 52 53  1  0
 52 54  1  0
 48 55  1  6
 39 56  1  1
 38 57  1  0
 38 58  1  0
 13  4  1  0
 30 24  1  0
 49 37  1  0
 13  8  1  0
 52 37  1  0
 42 40  1  0
M  CHG  1  39   1
M  END
>  <cnnaffinities>  (45) 
[5.60956]

>  <score>  (45) 
5.60956

>  <index>  (45) 
47

>  <Smiles>  (45) 
O=C(C(c1c(nc(c2c(c(c(c(c12)[H])[H])[H])[H])[H])[H])([H])[H])N(C(c1c(c(c(c(Cl)c1[H])[H])[H])[H])([H])[H])[C@]12C([N@@+](C3(C(C3([H])[H])([H])[H])[H])([C@](C1([H])[H])(C2([H])[H])[H])[H])([H])[H]

>  <h>  (45) 
<NA>

>  <Training>  (45) 
True

>  <Success>  (45) 
True

>  <enamine_searched>  (45) 
False

>  <enamine_id>  (45) 
nan

$$$$

     RDKit          3D

 46 48  0  0  0  0  0  0  0  0999 V2000
   -6.9696   -5.5064  -27.2422 C   0  0  0  0  0  0  0  0  0  0  0  0
   -6.2021   -4.1857  -27.3579 C   0  0  0  0  0  0  0  0  0  0  0  0
   -6.7420   -3.3781  -28.5412 C   0  0  0  0  0  0  0  0  0  0  0  0
   -7.8049   -3.1421  -28.4105 H   0  0  0  0  0  0  0  0  0  0  0  0
   -6.6466   -3.9509  -29.4709 H   0  0  0  0  0  0  0  0  0  0  0  0
   -6.2007   -2.4345  -28.6737 H   0  0  0  0  0  0  0  0  0  0  0  0
   -6.1646   -3.3573  -26.0576 C   0  0  0  0  0  0  0  0  0  0  0  0
   -5.2991   -4.0280  -24.9925 C   0  0  0  0  0  0  0  0  0  0  0  0
   -5.1705   -3.1594  -23.7629 C   0  0  0  0  0  0  0  0  0  0  0  0
   -6.4688   -2.7584  -23.2383 N   0  0  0  0  0  0  0  0  0  0  0  0
   -6.5034   -2.6209  -21.8671 C   0  0  0  0  0  0  0  0  0  0  0  0
   -5.8403   -3.3409  -21.1414 O   0  0  0  0  0  0  0  0  0  0  0  0
   -7.3671   -1.4985  -21.2792 C   0  0  0  0  0  0  0  0  0  0  0  0
   -6.6242   -0.7763  -20.1820 C   0  0  0  0  0  0  0  0  0  0  0  0
   -6.8985   -1.0536  -18.8698 C   0  0  0  0  0  0  0  0  0  0  0  0
   -6.2131   -0.5755  -17.7963 N   0  0  0  0  0  0  0  0  0  0  0  0
   -5.2089    0.2278  -18.0509 C   0  0  0  0  0  0  0  0  0  0  0  0
   -4.8078    0.6099  -19.3615 C   0  0  0  0  0  0  0  0  0  0  0  0
   -3.6563    1.4076  -19.5825 C   0  0  0  0  0  0  0  0  0  0  0  0
   -3.2941    1.7736  -20.8515 C   0  0  0  0  0  0  0  0  0  0  0  0
   -4.0826    1.3650  -21.9534 C   0  0  0  0  0  0  0  0  0  0  0  0
   -5.1737    0.5481  -21.7699 C   0  0  0  0  0  0  0  0  0  0  0  0
   -5.5471    0.1188  -20.4654 C   0  0  0  0  0  0  0  0  0  0  0  0
   -5.7460    0.2286  -22.6391 H   0  0  0  0  0  0  0  0  0  0  0  0
   -3.8193    1.7047  -22.9502 H   0  0  0  0  0  0  0  0  0  0  0  0
   -2.4085    2.3817  -21.0196 H   0  0  0  0  0  0  0  0  0  0  0  0
   -3.0713    1.7162  -18.7206 H   0  0  0  0  0  0  0  0  0  0  0  0
   -4.6302    0.5945  -17.2000 H   0  0  0  0  0  0  0  0  0  0  0  0
   -7.7267   -1.7206  -18.6285 H   0  0  0  0  0  0  0  0  0  0  0  0
   -7.6594   -0.8123  -22.0815 H   0  0  0  0  0  0  0  0  0  0  0  0
   -8.2782   -1.9668  -20.8762 H   0  0  0  0  0  0  0  0  0  0  0  0
   -7.3935   -2.1629  -24.2031 C   0  0  0  0  0  0  0  0  0  0  0  0
   -7.5311   -3.0574  -25.4370 C   0  0  0  0  0  0  0  0  0  0  0  0
   -8.0015   -3.9963  -25.1296 H   0  0  0  0  0  0  0  0  0  0  0  0
   -8.2115   -2.5964  -26.1616 H   0  0  0  0  0  0  0  0  0  0  0  0
   -8.3717   -2.0211  -23.7353 H   0  0  0  0  0  0  0  0  0  0  0  0
   -7.0503   -1.1667  -24.5271 H   0  0  0  0  0  0  0  0  0  0  0  0
   -4.5628   -2.2675  -23.9912 H   0  0  0  0  0  0  0  0  0  0  0  0
   -4.6781   -3.6798  -22.9446 H   0  0  0  0  0  0  0  0  0  0  0  0
   -5.7487   -4.9864  -24.7126 H   0  0  0  0  0  0  0  0  0  0  0  0
   -4.2990   -4.2546  -25.3787 H   0  0  0  0  0  0  0  0  0  0  0  0
   -5.6904   -2.3951  -26.3147 H   0  0  0  0  0  0  0  0  0  0  0  0
   -5.1567   -4.4343  -27.5873 H   0  0  0  0  0  0  0  0  0  0  0  0
   -6.5932   -6.1480  -26.4383 H   0  0  0  0  0  0  0  0  0  0  0  0
   -8.0366   -5.3297  -27.0618 H   0  0  0  0  0  0  0  0  0  0  0  0
   -6.8909   -6.0778  -28.1747 H   0  0  0  0  0  0  0  0  0  0  0  0
  1  2  1  0
  2  3  1  0
  3  4  1  0
  3  5  1  0
  3  6  1  0
  2  7  1  0
  7  8  1  0
  8  9  1  0
  9 10  1  0
 10 11  1  0
 11 12  2  0
 11 13  1  0
 13 14  1  0
 14 15  2  0
 15 16  1  0
 16 17  2  0
 17 18  1  0
 18 19  2  0
 19 20  1  0
 20 21  2  0
 21 22  1  0
 22 23  2  0
 22 24  1  0
 21 25  1  0
 20 26  1  0
 19 27  1  0
 17 28  1  0
 15 29  1  0
 13 30  1  0
 13 31  1  0
 10 32  1  0
 32 33  1  0
 33 34  1  0
 33 35  1  0
 32 36  1  0
 32 37  1  0
  9 38  1  0
  9 39  1  0
  8 40  1  0
  8 41  1  0
  7 42  1  0
  2 43  1  0
  1 44  1  0
  1 45  1  0
  1 46  1  0
 33  7  1  0
 23 14  1  0
 23 18  1  0
M  END
>  <cnnaffinities>  (46) 
[4.42597, 4.42593, 4.42631, 4.40743, 4.74545, 4.49589, 4.4959, 4.49744, 4.78912, 4.78942, 4.79205, 4.71379, 4.63629, 4.63662, 4.63625]

>  <score>  (46) 
4.42597

>  <index>  (46) 
48

>  <Smiles>  (46) 
C(C(C([H])([H])[H])(C1(C(C(N(C(=O)C(c2c(nc(c3c(c(c(c(c23)[H])[H])[H])[H])[H])[H])([H])[H])C(C1([H])[H])([H])[H])([H])[H])([H])[H])[H])[H])([H])([H])[H]

>  <h>  (46) 
<NA>

>  <Training>  (46) 
True

>  <Success>  (46) 
True

>  <enamine_searched>  (46) 
False

>  <enamine_id>  (46) 
nan

$$$$

     RDKit          3D

 67 72  0  0  0  0  0  0  0  0999 V2000
   -7.3784    3.4199  -21.9140 C   0  0  0  0  0  0  0  0  0  0  0  0
   -8.2690    2.9312  -22.9555 N   0  0  0  0  0  0  0  0  0  0  0  0
   -7.7055    2.2033  -23.9641 C   0  0  0  0  0  0  0  0  0  0  0  0
   -6.4969    2.0371  -24.0680 O   0  0  0  0  0  0  0  0  0  0  0  0
   -8.6805    1.5902  -24.9665 C   0  0  0  0  0  0  0  0  0  0  0  0
   -9.3618    0.4580  -24.3682 N   0  0  0  0  0  0  0  0  0  0  0  0
   -8.6262   -0.7875  -24.1994 C   0  0  0  0  0  0  0  0  0  0  0  0
   -9.0263   -1.5122  -22.8912 C   0  0  2  0  0  0  0  0  0  0  0  0
   -8.4952   -0.7368  -21.6636 C   0  0  0  0  0  0  0  0  0  0  0  0
   -8.9500    0.2756  -21.1704 O   0  0  0  0  0  0  0  0  0  0  0  0
   -7.3734   -1.3834  -21.2010 N   0  0  0  0  0  0  0  0  0  0  0  0
   -6.5997   -0.7995  -20.1725 C   0  0  0  0  0  0  0  0  0  0  0  0
   -6.9205   -1.0493  -18.8642 C   0  0  0  0  0  0  0  0  0  0  0  0
   -6.2331   -0.5640  -17.8039 N   0  0  0  0  0  0  0  0  0  0  0  0
   -5.2019    0.2061  -18.0603 C   0  0  0  0  0  0  0  0  0  0  0  0
   -4.7821    0.5716  -19.3725 C   0  0  0  0  0  0  0  0  0  0  0  0
   -3.6499    1.3941  -19.6057 C   0  0  0  0  0  0  0  0  0  0  0  0
   -3.3091    1.7645  -20.8777 C   0  0  0  0  0  0  0  0  0  0  0  0
   -4.0933    1.3525  -21.9776 C   0  0  0  0  0  0  0  0  0  0  0  0
   -5.1753    0.5245  -21.7831 C   0  0  0  0  0  0  0  0  0  0  0  0
   -5.5272    0.0910  -20.4742 C   0  0  0  0  0  0  0  0  0  0  0  0
   -5.7702    0.2185  -22.6396 H   0  0  0  0  0  0  0  0  0  0  0  0
   -3.8457    1.6896  -22.9801 H   0  0  0  0  0  0  0  0  0  0  0  0
   -2.4294    2.3773  -21.0474 H   0  0  0  0  0  0  0  0  0  0  0  0
   -3.0765    1.7289  -18.7462 H   0  0  0  0  0  0  0  0  0  0  0  0
   -4.6320    0.5754  -17.2075 H   0  0  0  0  0  0  0  0  0  0  0  0
   -7.7808   -1.6759  -18.6425 H   0  0  0  0  0  0  0  0  0  0  0  0
   -7.0232   -2.5822  -21.9304 C   0  0  0  0  0  0  0  0  0  0  0  0
   -8.2934   -2.8792  -22.7376 C   0  0  2  0  0  0  0  0  0  0  0  0
   -7.9765   -3.6676  -24.0154 C   0  0  0  0  0  0  0  0  0  0  0  0
   -7.4702   -4.9842  -23.7067 N   0  0  0  0  0  0  0  0  0  0  0  0
   -6.1390   -5.2882  -23.6214 C   0  0  0  0  0  0  0  0  0  0  0  0
   -5.0358   -4.5605  -23.9732 C   0  0  0  0  0  0  0  0  0  0  0  0
   -3.8139   -5.1660  -23.7694 N   0  0  0  0  0  0  0  0  0  0  0  0
   -3.9559   -6.3593  -23.2886 C   0  0  0  0  0  0  0  0  0  0  0  0
   -2.8184   -7.2791  -22.9849 C   0  0  0  0  0  0  0  0  0  0  0  0
   -3.0338   -7.9046  -22.1183 H   0  0  0  0  0  0  0  0  0  0  0  0
   -2.6295   -7.9445  -23.8343 H   0  0  0  0  0  0  0  0  0  0  0  0
   -1.9218   -6.6839  -22.8048 H   0  0  0  0  0  0  0  0  0  0  0  0
   -5.6170   -6.8521  -23.0285 S   0  0  0  0  0  0  0  0  0  0  0  0
   -5.0557   -3.5692  -24.4131 H   0  0  0  0  0  0  0  0  0  0  0  0
   -8.1274   -5.7276  -23.5230 H   0  0  0  0  0  0  0  0  0  0  0  0
   -8.8765   -3.7729  -24.6315 H   0  0  0  0  0  0  0  0  0  0  0  0
   -7.2215   -3.1344  -24.6089 H   0  0  0  0  0  0  0  0  0  0  0  0
   -8.9298   -3.5199  -22.1197 H   0  0  0  0  0  0  0  0  0  0  0  0
   -6.1530   -2.4278  -22.5900 H   0  0  0  0  0  0  0  0  0  0  0  0
   -6.7680   -3.4084  -21.2601 H   0  0  0  0  0  0  0  0  0  0  0  0
  -10.5381   -1.5672  -22.8315 C   0  0  0  0  0  0  0  0  0  0  0  0
  -11.1721   -2.4729  -21.9800 C   0  0  0  0  0  0  0  0  0  0  0  0
  -12.5478   -2.4809  -21.8742 C   0  0  0  0  0  0  0  0  0  0  0  0
  -13.2818   -3.5752  -20.7454 Cl  0  0  0  0  0  0  0  0  0  0  0  0
  -13.3495   -1.6126  -22.6121 C   0  0  0  0  0  0  0  0  0  0  0  0
  -12.7273   -0.6861  -23.4218 C   0  0  0  0  0  0  0  0  0  0  0  0
  -11.3383   -0.6395  -23.5101 C   0  0  0  0  0  0  0  0  0  0  0  0
  -10.7283    0.4777  -24.2961 C   0  0  0  0  0  0  0  0  0  0  0  0
  -11.4043    1.3616  -24.8021 O   0  0  0  0  0  0  0  0  0  0  0  0
  -13.2905    0.0351  -23.9992 H   0  0  0  0  0  0  0  0  0  0  0  0
  -14.4297   -1.6663  -22.5393 H   0  0  0  0  0  0  0  0  0  0  0  0
  -10.6099   -3.1755  -21.3767 H   0  0  0  0  0  0  0  0  0  0  0  0
   -7.5523   -0.5669  -24.2047 H   0  0  0  0  0  0  0  0  0  0  0  0
   -8.8380   -1.4574  -25.0443 H   0  0  0  0  0  0  0  0  0  0  0  0
   -9.4470    2.3095  -25.2722 H   0  0  0  0  0  0  0  0  0  0  0  0
   -8.1240    1.2700  -25.8547 H   0  0  0  0  0  0  0  0  0  0  0  0
   -9.2165    2.6928  -22.6778 H   0  0  0  0  0  0  0  0  0  0  0  0
   -6.8765    2.5777  -21.4102 H   0  0  0  0  0  0  0  0  0  0  0  0
   -6.6186    4.0649  -22.3666 H   0  0  0  0  0  0  0  0  0  0  0  0
   -7.9399    4.0216  -21.1948 H   0  0  0  0  0  0  0  0  0  0  0  0
  1  2  1  0
  2  3  1  0
  3  4  2  0
  3  5  1  0
  5  6  1  0
  6  7  1  0
  8  7  1  6
  8  9  1  0
  9 10  2  0
  9 11  1  0
 11 12  1  0
 12 13  2  0
 13 14  1  0
 14 15  2  0
 15 16  1  0
 16 17  2  0
 17 18  1  0
 18 19  2  0
 19 20  1  0
 20 21  2  0
 20 22  1  0
 19 23  1  0
 18 24  1  0
 17 25  1  0
 15 26  1  0
 13 27  1  0
 11 28  1  0
 28 29  1  0
 29 30  1  0
 30 31  1  0
 31 32  1  0
 32 33  2  0
 33 34  1  0
 34 35  2  0
 35 36  1  0
 36 37  1  0
 36 38  1  0
 36 39  1  0
 35 40  1  0
 33 41  1  0
 31 42  1  0
 30 43  1  0
 30 44  1  0
 29 45  1  1
 28 46  1  0
 28 47  1  0
  8 48  1  0
 48 49  2  0
 49 50  1  0
 50 51  1  0
 50 52  2  0
 52 53  1  0
 53 54  2  0
 54 55  1  0
 55 56  2  0
 53 57  1  0
 52 58  1  0
 49 59  1  0
  7 60  1  0
  7 61  1  0
  5 62  1  0
  5 63  1  0
  2 64  1  0
  1 65  1  0
  1 66  1  0
  1 67  1  0
 55  6  1  0
 29  8  1  0
 40 32  1  0
 54 48  1  0
 21 12  1  0
 21 16  1  0
M  END
>  <cnnaffinities>  (47) 
[6.6222]

>  <score>  (47) 
6.6222

>  <index>  (47) 
49

>  <Smiles>  (47) 
C(N(C(=O)C(N1C([C@@]2(C(=O)N(c3c(nc(c4c(c(c(c(c34)[H])[H])[H])[H])[H])[H])C([C@@]2(C(N(c2c(nc(C([H])([H])[H])s2)[H])[H])([H])[H])[H])([H])[H])c2c(c(Cl)c(c(c2C1=O)[H])[H])[H])([H])[H])([H])[H])[H])([H])([H])[H]

>  <h>  (47) 
<NA>

>  <Training>  (47) 
True

>  <Success>  (47) 
True

>  <enamine_searched>  (47) 
False

>  <enamine_id>  (47) 
nan

$$$$

     RDKit          3D

 66 70  0  0  0  0  0  0  0  0999 V2000
   -7.4104    3.3874  -21.9395 C   0  0  0  0  0  0  0  0  0  0  0  0
   -8.3516    2.9010  -22.9386 N   0  0  0  0  0  0  0  0  0  0  0  0
   -7.8436    2.1296  -23.9447 C   0  0  0  0  0  0  0  0  0  0  0  0
   -6.6473    1.9101  -24.0760 O   0  0  0  0  0  0  0  0  0  0  0  0
   -8.8757    1.5361  -24.9027 C   0  0  0  0  0  0  0  0  0  0  0  0
   -9.5259    0.4006  -24.2776 N   0  0  0  0  0  0  0  0  0  0  0  0
   -8.7820   -0.8408  -24.1333 C   0  0  0  0  0  0  0  0  0  0  0  0
   -9.1184   -1.5570  -22.8037 C   0  0  2  0  0  0  0  0  0  0  0  0
   -8.5496   -0.7506  -21.6154 C   0  0  0  0  0  0  0  0  0  0  0  0
   -8.9902    0.2756  -21.1323 O   0  0  0  0  0  0  0  0  0  0  0  0
   -7.4005   -1.3732  -21.1912 N   0  0  0  0  0  0  0  0  0  0  0  0
   -6.6176   -0.7884  -20.1657 C   0  0  0  0  0  0  0  0  0  0  0  0
   -6.9275   -1.0403  -18.8567 C   0  0  0  0  0  0  0  0  0  0  0  0
   -6.2301   -0.5610  -17.7973 N   0  0  0  0  0  0  0  0  0  0  0  0
   -5.2019    0.2087  -18.0586 C   0  0  0  0  0  0  0  0  0  0  0  0
   -4.7861    0.5719  -19.3706 C   0  0  0  0  0  0  0  0  0  0  0  0
   -3.6534    1.3911  -19.6084 C   0  0  0  0  0  0  0  0  0  0  0  0
   -3.3176    1.7649  -20.8780 C   0  0  0  0  0  0  0  0  0  0  0  0
   -4.1065    1.3549  -21.9773 C   0  0  0  0  0  0  0  0  0  0  0  0
   -5.1883    0.5265  -21.7811 C   0  0  0  0  0  0  0  0  0  0  0  0
   -5.5372    0.0907  -20.4739 C   0  0  0  0  0  0  0  0  0  0  0  0
   -5.7886    0.2296  -22.6377 H   0  0  0  0  0  0  0  0  0  0  0  0
   -3.8601    1.6921  -22.9792 H   0  0  0  0  0  0  0  0  0  0  0  0
   -2.4402    2.3801  -21.0500 H   0  0  0  0  0  0  0  0  0  0  0  0
   -3.0780    1.7254  -18.7484 H   0  0  0  0  0  0  0  0  0  0  0  0
   -4.6232    0.5748  -17.2082 H   0  0  0  0  0  0  0  0  0  0  0  0
   -7.7844   -1.6684  -18.6259 H   0  0  0  0  0  0  0  0  0  0  0  0
   -7.0574   -2.5792  -21.9229 C   0  0  0  0  0  0  0  0  0  0  0  0
   -8.3539   -2.9089  -22.6804 C   0  0  2  0  0  0  0  0  0  0  0  0
   -8.1066   -3.6552  -23.9868 C   0  0  0  0  0  0  0  0  0  0  0  0
   -7.4627   -4.8817  -23.7051 O   0  0  0  0  0  0  0  0  0  0  0  0
   -7.3090   -5.7361  -24.8373 C   0  0  0  0  0  0  0  0  0  0  0  0
   -8.4437   -6.7580  -24.8995 C   0  0  0  0  0  0  0  0  0  0  0  0
   -8.4391   -7.3769  -23.9955 H   0  0  0  0  0  0  0  0  0  0  0  0
   -8.3097   -7.4100  -25.7723 H   0  0  0  0  0  0  0  0  0  0  0  0
   -9.4248   -6.2738  -24.9776 H   0  0  0  0  0  0  0  0  0  0  0  0
   -5.9553   -6.4256  -24.7289 C   0  0  0  0  0  0  0  0  0  0  0  0
   -5.9249   -7.0488  -23.8289 H   0  0  0  0  0  0  0  0  0  0  0  0
   -5.7914   -7.0642  -25.6054 H   0  0  0  0  0  0  0  0  0  0  0  0
   -5.1462   -5.6906  -24.6764 H   0  0  0  0  0  0  0  0  0  0  0  0
   -7.3248   -5.1350  -25.7637 H   0  0  0  0  0  0  0  0  0  0  0  0
   -9.0644   -3.8148  -24.5089 H   0  0  0  0  0  0  0  0  0  0  0  0
   -7.4661   -3.0548  -24.6549 H   0  0  0  0  0  0  0  0  0  0  0  0
   -8.9376   -3.5816  -22.0492 H   0  0  0  0  0  0  0  0  0  0  0  0
   -6.7754   -3.3795  -21.2352 H   0  0  0  0  0  0  0  0  0  0  0  0
   -6.2145   -2.4173  -22.6120 H   0  0  0  0  0  0  0  0  0  0  0  0
  -10.6240   -1.6432  -22.7015 C   0  0  0  0  0  0  0  0  0  0  0  0
  -11.2288   -2.5874  -21.8724 C   0  0  0  0  0  0  0  0  0  0  0  0
  -12.5985   -2.5856  -21.7230 C   0  0  0  0  0  0  0  0  0  0  0  0
  -13.1472   -3.4755  -20.8837 F   0  0  0  0  0  0  0  0  0  0  0  0
  -13.4351   -1.6911  -22.3763 C   0  0  0  0  0  0  0  0  0  0  0  0
  -12.8382   -0.7519  -23.1861 C   0  0  0  0  0  0  0  0  0  0  0  0
  -11.4542   -0.7051  -23.3339 C   0  0  0  0  0  0  0  0  0  0  0  0
  -10.8841    0.4167  -24.1414 C   0  0  0  0  0  0  0  0  0  0  0  0
  -11.5815    1.3035  -24.6167 O   0  0  0  0  0  0  0  0  0  0  0  0
  -13.4263   -0.0201  -23.7208 H   0  0  0  0  0  0  0  0  0  0  0  0
  -14.5088   -1.7439  -22.2294 H   0  0  0  0  0  0  0  0  0  0  0  0
  -10.6640   -3.3309  -21.3234 H   0  0  0  0  0  0  0  0  0  0  0  0
   -9.0300   -1.5170  -24.9624 H   0  0  0  0  0  0  0  0  0  0  0  0
   -7.7115   -0.6199  -24.1878 H   0  0  0  0  0  0  0  0  0  0  0  0
   -8.3718    1.2195  -25.8223 H   0  0  0  0  0  0  0  0  0  0  0  0
   -9.6519    2.2624  -25.1653 H   0  0  0  0  0  0  0  0  0  0  0  0
   -9.2957    2.7083  -22.6237 H   0  0  0  0  0  0  0  0  0  0  0  0
   -7.9272    4.0226  -21.2176 H   0  0  0  0  0  0  0  0  0  0  0  0
   -6.9142    2.5466  -21.4277 H   0  0  0  0  0  0  0  0  0  0  0  0
   -6.6513    4.0020  -22.4311 H   0  0  0  0  0  0  0  0  0  0  0  0
  1  2  1  0
  2  3  1  0
  3  4  2  0
  3  5  1  0
  5  6  1  0
  6  7  1  0
  8  7  1  6
  8  9  1  0
  9 10  2  0
  9 11  1  0
 11 12  1  0
 12 13  2  0
 13 14  1  0
 14 15  2  0
 15 16  1  0
 16 17  2  0
 17 18  1  0
 18 19  2  0
 19 20  1  0
 20 21  2  0
 20 22  1  0
 19 23  1  0
 18 24  1  0
 17 25  1  0
 15 26  1  0
 13 27  1  0
 11 28  1  0
 28 29  1  0
 29 30  1  0
 30 31  1  0
 31 32  1  0
 32 33  1  0
 33 34  1  0
 33 35  1  0
 33 36  1  0
 32 37  1  0
 37 38  1  0
 37 39  1  0
 37 40  1  0
 32 41  1  0
 30 42  1  0
 30 43  1  0
 29 44  1  1
 28 45  1  0
 28 46  1  0
  8 47  1  0
 47 48  2  0
 48 49  1  0
 49 50  1  0
 49 51  2  0
 51 52  1  0
 52 53  2  0
 53 54  1  0
 54 55  2  0
 52 56  1  0
 51 57  1  0
 48 58  1  0
  7 59  1  0
  7 60  1  0
  5 61  1  0
  5 62  1  0
  2 63  1  0
  1 64  1  0
  1 65  1  0
  1 66  1  0
 54  6  1  0
 29  8  1  0
 53 47  1  0
 21 12  1  0
 21 16  1  0
M  END
>  <cnnaffinities>  (48) 
[5.94342, 5.37137, 5.3522, 5.51716]

>  <score>  (48) 
5.94342

>  <index>  (48) 
50

>  <Smiles>  (48) 
C(N(C(=O)C(N1C([C@@]2(C(=O)N(c3c(nc(c4c(c(c(c(c34)[H])[H])[H])[H])[H])[H])C([C@@]2(C(OC(C([H])([H])[H])(C([H])([H])[H])[H])([H])[H])[H])([H])[H])c2c(c(F)c(c(c2C1=O)[H])[H])[H])([H])[H])([H])[H])[H])([H])([H])[H]

>  <h>  (48) 
<NA>

>  <Training>  (48) 
True

>  <Success>  (48) 
True

>  <enamine_searched>  (48) 
False

>  <enamine_id>  (48) 
nan

$$$$

     RDKit          3D

 50 52  0  0  0  0  0  0  0  0999 V2000
   -9.1702   -1.9604  -25.2570 C   0  0  0  0  0  0  0  0  0  0  0  0
   -8.2642   -2.4382  -24.4145 C   0  0  0  0  0  0  0  0  0  0  0  0
   -8.6950   -3.1125  -23.1327 C   0  0  0  0  0  0  0  0  0  0  0  0
   -9.3050   -2.1389  -22.2290 N   0  0  0  0  0  0  0  0  0  0  0  0
   -8.6169   -1.2025  -21.4702 C   0  0  0  0  0  0  0  0  0  0  0  0
   -9.1574   -0.2391  -20.9538 O   0  0  0  0  0  0  0  0  0  0  0  0
   -7.2900   -1.5071  -21.2404 N   0  0  0  0  0  0  0  0  0  0  0  0
   -6.5863   -0.8579  -20.1992 C   0  0  0  0  0  0  0  0  0  0  0  0
   -6.9229   -1.0752  -18.8818 C   0  0  0  0  0  0  0  0  0  0  0  0
   -6.2390   -0.5755  -17.8225 N   0  0  0  0  0  0  0  0  0  0  0  0
   -5.2088    0.1910  -18.0937 C   0  0  0  0  0  0  0  0  0  0  0  0
   -4.7788    0.5297  -19.4072 C   0  0  0  0  0  0  0  0  0  0  0  0
   -3.6551    1.3649  -19.6251 C   0  0  0  0  0  0  0  0  0  0  0  0
   -3.2915    1.7101  -20.8976 C   0  0  0  0  0  0  0  0  0  0  0  0
   -4.0593    1.2745  -22.0020 C   0  0  0  0  0  0  0  0  0  0  0  0
   -5.1394    0.4390  -21.8233 C   0  0  0  0  0  0  0  0  0  0  0  0
   -5.5017    0.0242  -20.5093 C   0  0  0  0  0  0  0  0  0  0  0  0
   -5.6940    0.0898  -22.6946 H   0  0  0  0  0  0  0  0  0  0  0  0
   -3.7504    1.5581  -23.0062 H   0  0  0  0  0  0  0  0  0  0  0  0
   -2.4054    2.3128  -21.0701 H   0  0  0  0  0  0  0  0  0  0  0  0
   -3.0975    1.7022  -18.7560 H   0  0  0  0  0  0  0  0  0  0  0  0
   -4.6525    0.6000  -17.2535 H   0  0  0  0  0  0  0  0  0  0  0  0
   -7.7828   -1.7000  -18.6440 H   0  0  0  0  0  0  0  0  0  0  0  0
   -6.7696   -1.9963  -21.9542 H   0  0  0  0  0  0  0  0  0  0  0  0
  -10.7138   -2.0171  -22.3255 C   0  0  0  0  0  0  0  0  0  0  0  0
  -11.4808   -3.1609  -22.1176 C   0  0  0  0  0  0  0  0  0  0  0  0
  -12.8575   -3.0850  -22.1517 C   0  0  0  0  0  0  0  0  0  0  0  0
  -13.4921   -1.8837  -22.4759 C   0  0  0  0  0  0  0  0  0  0  0  0
  -12.7131   -0.7546  -22.7090 C   0  0  0  0  0  0  0  0  0  0  0  0
  -13.4848    0.7700  -23.0843 Cl  0  0  0  0  0  0  0  0  0  0  0  0
  -11.3276   -0.8000  -22.6267 C   0  0  0  0  0  0  0  0  0  0  0  0
  -10.7512    0.1048  -22.7796 H   0  0  0  0  0  0  0  0  0  0  0  0
  -14.5700   -1.8128  -22.5601 H   0  0  0  0  0  0  0  0  0  0  0  0
  -13.4010   -3.9953  -21.9283 H   0  0  0  0  0  0  0  0  0  0  0  0
  -10.9984   -4.1202  -21.9231 H   0  0  0  0  0  0  0  0  0  0  0  0
   -9.4832   -3.8303  -23.3641 H   0  0  0  0  0  0  0  0  0  0  0  0
   -7.9119   -3.6741  -22.6171 H   0  0  0  0  0  0  0  0  0  0  0  0
   -6.8202   -2.1433  -24.6676 C   0  0  0  0  0  0  0  0  0  0  0  0
   -6.4535   -1.1256  -25.2416 O   0  0  0  0  0  0  0  0  0  0  0  0
   -5.9488   -3.0742  -24.1761 N   0  0  0  0  0  0  0  0  0  0  0  0
   -4.5157   -2.8900  -24.3401 C   0  0  0  0  0  0  0  0  0  0  0  0
   -3.9840   -3.0185  -25.7670 C   0  0  0  0  0  0  0  0  0  0  0  0
   -4.4338   -2.2698  -26.4247 H   0  0  0  0  0  0  0  0  0  0  0  0
   -4.1513   -4.0074  -26.2055 H   0  0  0  0  0  0  0  0  0  0  0  0
   -2.9063   -2.8345  -25.7537 H   0  0  0  0  0  0  0  0  0  0  0  0
   -4.3024   -1.8773  -23.9887 H   0  0  0  0  0  0  0  0  0  0  0  0
   -4.0190   -3.5963  -23.6654 H   0  0  0  0  0  0  0  0  0  0  0  0
   -6.3130   -4.0061  -24.0375 H   0  0  0  0  0  0  0  0  0  0  0  0
   -8.8759   -1.3793  -26.1263 H   0  0  0  0  0  0  0  0  0  0  0  0
  -10.2317   -2.1290  -25.0720 H   0  0  0  0  0  0  0  0  0  0  0  0
  1  2  2  0
  2  3  1  0
  3  4  1  0
  4  5  1  0
  5  6  2  0
  5  7  1  0
  7  8  1  0
  8  9  2  0
  9 10  1  0
 10 11  2  0
 11 12  1  0
 12 13  2  0
 13 14  1  0
 14 15  2  0
 15 16  1  0
 16 17  2  0
 16 18  1  0
 15 19  1  0
 14 20  1  0
 13 21  1  0
 11 22  1  0
  9 23  1  0
  7 24  1  0
  4 25  1  0
 25 26  2  0
 26 27  1  0
 27 28  2  0
 28 29  1  0
 29 30  1  0
 29 31  2  0
 31 32  1  0
 28 33  1  0
 27 34  1  0
 26 35  1  0
  3 36  1  0
  3 37  1  0
  2 38  1  0
 38 39  2  0
 38 40  1  0
 40 41  1  0
 41 42  1  0
 42 43  1  0
 42 44  1  0
 42 45  1  0
 41 46  1  0
 41 47  1  0
 40 48  1  0
  1 49  1  0
  1 50  1  0
 17  8  1  0
 31 25  1  0
 17 12  1  0
M  END
>  <cnnaffinities>  (49) 
[5.43384]

>  <score>  (49) 
5.43384

>  <index>  (49) 
51

>  <Smiles>  (49) 
C(=C(C(N(C(=O)N(c1c(nc(c2c(c(c(c(c12)[H])[H])[H])[H])[H])[H])[H])c1c(c(c(c(Cl)c1[H])[H])[H])[H])([H])[H])C(=O)N(C(C([H])([H])[H])([H])[H])[H])([H])[H]

>  <h>  (49) 
<NA>

>  <Training>  (49) 
True

>  <Success>  (49) 
True

>  <enamine_searched>  (49) 
False

>  <enamine_id>  (49) 
nan

$$$$

     RDKit          3D

 57 60  0  0  0  0  0  0  0  0999 V2000
   -2.7955   -4.2776  -29.8018 C   0  0  0  0  0  0  0  0  0  0  0  0
   -2.7751   -3.3253  -28.6051 C   0  0  0  0  0  0  0  0  0  0  0  0
   -3.9056   -3.5634  -27.6316 C   0  0  0  0  0  0  0  0  0  0  0  0
   -4.9677   -2.9738  -27.7257 O   0  0  0  0  0  0  0  0  0  0  0  0
   -3.6496   -4.4772  -26.6430 N   0  0  0  0  0  0  0  0  0  0  0  0
   -4.5118   -4.7319  -25.5555 C   0  0  0  0  0  0  0  0  0  0  0  0
   -4.5962   -6.0305  -25.0495 C   0  0  0  0  0  0  0  0  0  0  0  0
   -5.4489   -6.3009  -23.9886 C   0  0  0  0  0  0  0  0  0  0  0  0
   -6.1817   -5.2788  -23.3946 C   0  0  0  0  0  0  0  0  0  0  0  0
   -6.0622   -3.9766  -23.8804 C   0  0  0  0  0  0  0  0  0  0  0  0
   -6.8097   -2.9101  -23.2803 N   0  0  0  0  0  0  0  0  0  0  0  0
   -7.8089   -2.2365  -24.1142 C   0  0  0  0  0  0  0  0  0  0  0  0
   -9.2523   -2.4979  -23.7086 C   0  0  0  0  0  0  0  0  0  0  0  0
  -10.1258   -1.4555  -23.3835 C   0  0  0  0  0  0  0  0  0  0  0  0
  -11.4365   -1.7147  -22.9845 C   0  0  0  0  0  0  0  0  0  0  0  0
  -11.8969   -3.0269  -22.9214 C   0  0  0  0  0  0  0  0  0  0  0  0
  -11.0393   -4.0704  -23.2603 C   0  0  0  0  0  0  0  0  0  0  0  0
   -9.7271   -3.8085  -23.6473 C   0  0  0  0  0  0  0  0  0  0  0  0
   -9.0622   -4.6282  -23.9174 H   0  0  0  0  0  0  0  0  0  0  0  0
  -11.4016   -5.0942  -23.2267 H   0  0  0  0  0  0  0  0  0  0  0  0
  -12.9189   -3.2370  -22.6104 H   0  0  0  0  0  0  0  0  0  0  0  0
  -12.0969   -0.8899  -22.7227 H   0  0  0  0  0  0  0  0  0  0  0  0
   -9.7898   -0.4210  -23.4505 H   0  0  0  0  0  0  0  0  0  0  0  0
   -7.6250   -1.1540  -24.1474 H   0  0  0  0  0  0  0  0  0  0  0  0
   -7.6270   -2.6206  -25.1236 H   0  0  0  0  0  0  0  0  0  0  0  0
   -6.6061   -2.6652  -21.9302 C   0  0  0  0  0  0  0  0  0  0  0  0
   -5.8548   -3.3479  -21.2572 O   0  0  0  0  0  0  0  0  0  0  0  0
   -7.3512   -1.4830  -21.3028 C   0  0  0  0  0  0  0  0  0  0  0  0
   -6.5887   -0.8044  -20.1947 C   0  0  0  0  0  0  0  0  0  0  0  0
   -6.8792   -1.0626  -18.8817 C   0  0  0  0  0  0  0  0  0  0  0  0
   -6.1994   -0.5739  -17.8095 N   0  0  0  0  0  0  0  0  0  0  0  0
   -5.1825    0.2135  -18.0631 C   0  0  0  0  0  0  0  0  0  0  0  0
   -4.7663    0.5787  -19.3700 C   0  0  0  0  0  0  0  0  0  0  0  0
   -3.6327    1.4008  -19.5915 C   0  0  0  0  0  0  0  0  0  0  0  0
   -3.2609    1.7329  -20.8681 C   0  0  0  0  0  0  0  0  0  0  0  0
   -4.0279    1.2888  -21.9703 C   0  0  0  0  0  0  0  0  0  0  0  0
   -5.1075    0.4609  -21.7789 C   0  0  0  0  0  0  0  0  0  0  0  0
   -5.5002    0.0754  -20.4719 C   0  0  0  0  0  0  0  0  0  0  0  0
   -5.6412    0.0602  -22.6351 H   0  0  0  0  0  0  0  0  0  0  0  0
   -3.7267    1.5588  -22.9809 H   0  0  0  0  0  0  0  0  0  0  0  0
   -2.3666    2.3259  -21.0472 H   0  0  0  0  0  0  0  0  0  0  0  0
   -3.0573    1.7292  -18.7260 H   0  0  0  0  0  0  0  0  0  0  0  0
   -4.6314    0.6057  -17.2072 H   0  0  0  0  0  0  0  0  0  0  0  0
   -7.7239   -1.7044  -18.6274 H   0  0  0  0  0  0  0  0  0  0  0  0
   -7.6350   -0.7644  -22.0737 H   0  0  0  0  0  0  0  0  0  0  0  0
   -8.2859   -1.8972  -20.9087 H   0  0  0  0  0  0  0  0  0  0  0  0
   -5.2683   -3.7057  -24.9927 C   0  0  0  0  0  0  0  0  0  0  0  0
   -5.2186   -2.7053  -25.4099 H   0  0  0  0  0  0  0  0  0  0  0  0
   -6.8331   -5.4837  -22.5497 H   0  0  0  0  0  0  0  0  0  0  0  0
   -5.5312   -7.3159  -23.6096 H   0  0  0  0  0  0  0  0  0  0  0  0
   -4.0095   -6.8257  -25.5019 H   0  0  0  0  0  0  0  0  0  0  0  0
   -2.8279   -5.0544  -26.7326 H   0  0  0  0  0  0  0  0  0  0  0  0
   -1.8207   -3.3859  -28.0743 H   0  0  0  0  0  0  0  0  0  0  0  0
   -2.9198   -2.2920  -28.9284 H   0  0  0  0  0  0  0  0  0  0  0  0
   -2.6373   -5.3264  -29.5227 H   0  0  0  0  0  0  0  0  0  0  0  0
   -2.0040   -4.0103  -30.5073 H   0  0  0  0  0  0  0  0  0  0  0  0
   -3.7502   -4.2083  -30.3300 H   0  0  0  0  0  0  0  0  0  0  0  0
  1  2  1  0
  2  3  1  0
  3  4  2  0
  3  5  1  0
  5  6  1  0
  6  7  2  0
  7  8  1  0
  8  9  2  0
  9 10  1  0
 10 11  1  0
 11 12  1  0
 12 13  1  0
 13 14  2  0
 14 15  1  0
 15 16  2  0
 16 17  1  0
 17 18  2  0
 18 19  1  0
 17 20  1  0
 16 21  1  0
 15 22  1  0
 14 23  1  0
 12 24  1  0
 12 25  1  0
 11 26  1  0
 26 27  2  0
 26 28  1  0
 28 29  1  0
 29 30  2  0
 30 31  1  0
 31 32  2  0
 32 33  1  0
 33 34  2  0
 34 35  1  0
 35 36  2  0
 36 37  1  0
 37 38  2  0
 37 39  1  0
 36 40  1  0
 35 41  1  0
 34 42  1  0
 32 43  1  0
 30 44  1  0
 28 45  1  0
 28 46  1  0
 10 47  2  0
 47 48  1  0
  9 49  1  0
  8 50  1  0
  7 51  1  0
  5 52  1  0
  2 53  1  0
  2 54  1  0
  1 55  1  0
  1 56  1  0
  1 57  1  0
 47  6  1  0
 18 13  1  0
 38 29  1  0
 38 33  1  0
M  END
>  <cnnaffinities>  (50) 
[5.73256, 5.62267, 5.62493, 5.59958, 5.16113, 5.59948, 5.74785, 5.66493, 5.65441]

>  <score>  (50) 
5.73256

>  <index>  (50) 
52

>  <Smiles>  (50) 
C(C(C(=O)N(c1c(c(c(c(N(C(c2c(c(c(c(c2[H])[H])[H])[H])[H])([H])[H])C(=O)C(c2c(nc(c3c(c(c(c(c23)[H])[H])[H])[H])[H])[H])([H])[H])c1[H])[H])[H])[H])[H])([H])[H])([H])([H])[H]

>  <h>  (50) 
<NA>

>  <Training>  (50) 
True

>  <Success>  (50) 
True

>  <enamine_searched>  (50) 
False

>  <enamine_id>  (50) 
nan

$$$$

     RDKit          3D

 59 63  0  0  0  0  0  0  0  0999 V2000
   -7.5609   -1.4353  -29.5027 C   0  0  0  0  0  0  0  0  0  0  0  0
   -6.9262   -0.0583  -29.3660 C   0  0  0  0  0  0  0  0  0  0  0  0
   -7.1925    0.5692  -28.0829 N   0  0  0  0  0  0  0  0  0  0  0  0
   -6.5921    0.0833  -26.9633 C   0  0  0  0  0  0  0  0  0  0  0  0
   -5.7289   -0.7763  -26.9743 O   0  0  0  0  0  0  0  0  0  0  0  0
   -7.0966    0.6861  -25.6557 C   0  0  0  0  0  0  0  0  0  0  0  0
   -8.2165   -0.0500  -25.1168 N   0  0  0  0  0  0  0  0  0  0  0  0
   -7.9747   -1.3298  -24.4848 C   0  0  0  0  0  0  0  0  0  0  0  0
   -8.7501   -1.4697  -23.1579 C   0  0  2  0  0  0  0  0  0  0  0  0
   -8.1334   -0.5567  -22.0832 C   0  0  0  0  0  0  0  0  0  0  0  0
   -8.2467    0.6442  -21.9850 O   0  0  0  0  0  0  0  0  0  0  0  0
   -7.3993   -1.3267  -21.2192 N   0  0  0  0  0  0  0  0  0  0  0  0
   -6.6270   -0.7586  -20.1851 C   0  0  0  0  0  0  0  0  0  0  0  0
   -6.9027   -1.0658  -18.8743 C   0  0  0  0  0  0  0  0  0  0  0  0
   -6.2068   -0.5901  -17.8133 N   0  0  0  0  0  0  0  0  0  0  0  0
   -5.2008    0.2135  -18.0696 C   0  0  0  0  0  0  0  0  0  0  0  0
   -4.7966    0.5913  -19.3818 C   0  0  0  0  0  0  0  0  0  0  0  0
   -3.6493    1.3975  -19.6007 C   0  0  0  0  0  0  0  0  0  0  0  0
   -3.2588    1.7264  -20.8706 C   0  0  0  0  0  0  0  0  0  0  0  0
   -4.0172    1.2919  -21.9825 C   0  0  0  0  0  0  0  0  0  0  0  0
   -5.1051    0.4746  -21.7997 C   0  0  0  0  0  0  0  0  0  0  0  0
   -5.5235    0.1009  -20.4871 C   0  0  0  0  0  0  0  0  0  0  0  0
   -5.6388    0.0935  -22.6675 H   0  0  0  0  0  0  0  0  0  0  0  0
   -3.7025    1.5662  -22.9872 H   0  0  0  0  0  0  0  0  0  0  0  0
   -2.3709    2.3325  -21.0367 H   0  0  0  0  0  0  0  0  0  0  0  0
   -3.0775    1.7200  -18.7341 H   0  0  0  0  0  0  0  0  0  0  0  0
   -4.6281    0.5903  -17.2211 H   0  0  0  0  0  0  0  0  0  0  0  0
   -7.7475   -1.7147  -18.6356 H   0  0  0  0  0  0  0  0  0  0  0  0
   -7.4324   -2.7381  -21.5187 C   0  0  0  0  0  0  0  0  0  0  0  0
   -8.5684   -2.8873  -22.5431 C   0  0  2  0  0  0  0  0  0  0  0  0
   -8.3353   -4.0511  -23.5137 C   0  0  0  0  0  0  0  0  0  0  0  0
   -9.1315   -4.1438  -24.2641 H   0  0  0  0  0  0  0  0  0  0  0  0
   -7.3854   -3.9379  -24.0514 H   0  0  0  0  0  0  0  0  0  0  0  0
   -8.2876   -5.0086  -22.9801 H   0  0  0  0  0  0  0  0  0  0  0  0
   -9.4824   -3.1121  -21.9930 H   0  0  0  0  0  0  0  0  0  0  0  0
   -6.4731   -3.0789  -21.9299 H   0  0  0  0  0  0  0  0  0  0  0  0
   -7.6227   -3.2913  -20.6027 H   0  0  0  0  0  0  0  0  0  0  0  0
  -10.1837   -1.0507  -23.3971 C   0  0  0  0  0  0  0  0  0  0  0  0
  -11.1911   -1.4446  -22.5079 C   0  0  0  0  0  0  0  0  0  0  0  0
  -12.5002   -1.0662  -22.7464 C   0  0  0  0  0  0  0  0  0  0  0  0
  -13.7605   -1.6644  -21.6989 Cl  0  0  0  0  0  0  0  0  0  0  0  0
  -12.8383   -0.2162  -23.8026 C   0  0  0  0  0  0  0  0  0  0  0  0
  -11.8328    0.2546  -24.6250 C   0  0  0  0  0  0  0  0  0  0  0  0
  -10.5218   -0.1728  -24.4382 C   0  0  0  0  0  0  0  0  0  0  0  0
   -9.4839    0.3922  -25.3560 C   0  0  0  0  0  0  0  0  0  0  0  0
   -9.7450    1.2256  -26.2232 O   0  0  0  0  0  0  0  0  0  0  0  0
  -12.0147    0.9700  -25.4219 H   0  0  0  0  0  0  0  0  0  0  0  0
  -13.8768    0.0618  -23.9448 H   0  0  0  0  0  0  0  0  0  0  0  0
  -10.9580   -2.0218  -21.6163 H   0  0  0  0  0  0  0  0  0  0  0  0
   -6.8969   -1.4285  -24.3196 H   0  0  0  0  0  0  0  0  0  0  0  0
   -8.2997   -2.1283  -25.1651 H   0  0  0  0  0  0  0  0  0  0  0  0
   -7.4379    1.7107  -25.8141 H   0  0  0  0  0  0  0  0  0  0  0  0
   -6.2669    0.6498  -24.9389 H   0  0  0  0  0  0  0  0  0  0  0  0
   -8.0211    1.1404  -27.9715 H   0  0  0  0  0  0  0  0  0  0  0  0
   -5.8435   -0.1506  -29.4609 H   0  0  0  0  0  0  0  0  0  0  0  0
   -7.2619    0.6197  -30.1551 H   0  0  0  0  0  0  0  0  0  0  0  0
   -7.1630   -2.1110  -28.7425 H   0  0  0  0  0  0  0  0  0  0  0  0
   -7.3335   -1.8633  -30.4809 H   0  0  0  0  0  0  0  0  0  0  0  0
   -8.6462   -1.3927  -29.3811 H   0  0  0  0  0  0  0  0  0  0  0  0
  1  2  1  0
  2  3  1  0
  3  4  1  0
  4  5  2  0
  4  6  1  0
  6  7  1  0
  7  8  1  0
  9  8  1  6
  9 10  1  0
 10 11  2  0
 10 12  1  0
 12 13  1  0
 13 14  2  0
 14 15  1  0
 15 16  2  0
 16 17  1  0
 17 18  2  0
 18 19  1  0
 19 20  2  0
 20 21  1  0
 21 22  2  0
 21 23  1  0
 20 24  1  0
 19 25  1  0
 18 26  1  0
 16 27  1  0
 14 28  1  0
 12 29  1  0
 29 30  1  0
 30 31  1  0
 31 32  1  0
 31 33  1  0
 31 34  1  0
 30 35  1  1
 29 36  1  0
 29 37  1  0
  9 38  1  0
 38 39  2  0
 39 40  1  0
 40 41  1  0
 40 42  2  0
 42 43  1  0
 43 44  2  0
 44 45  1  0
 45 46  2  0
 43 47  1  0
 42 48  1  0
 39 49  1  0
  8 50  1  0
  8 51  1  0
  6 52  1  0
  6 53  1  0
  3 54  1  0
  2 55  1  0
  2 56  1  0
  1 57  1  0
  1 58  1  0
  1 59  1  0
 45  7  1  0
 30  9  1  0
 44 38  1  0
 22 13  1  0
 22 17  1  0
M  END
>  <cnnaffinities>  (51) 
[5.51679, 5.45668]

>  <score>  (51) 
5.51679

>  <index>  (51) 
53

>  <Smiles>  (51) 
C(C(N(C(=O)C(N1C([C@@]2(C(=O)N(c3c(nc(c4c(c(c(c(c34)[H])[H])[H])[H])[H])[H])C([C@@]2(C([H])([H])[H])[H])([H])[H])c2c(c(Cl)c(c(c2C1=O)[H])[H])[H])([H])[H])([H])[H])[H])([H])[H])([H])([H])[H]

>  <h>  (51) 
<NA>

>  <Training>  (51) 
True

>  <Success>  (51) 
True

>  <enamine_searched>  (51) 
False

>  <enamine_id>  (51) 
nan

$$$$

     RDKit          3D

 40 43  0  0  0  0  0  0  0  0999 V2000
   -7.9494   -3.5336  -24.0167 C   0  0  0  0  0  0  0  0  0  0  0  0
   -7.9891   -2.6580  -22.8694 N   0  0  0  0  0  0  0  0  0  0  0  0
   -9.0510   -2.0284  -22.2840 C   0  0  0  0  0  0  0  0  0  0  0  0
  -10.4194   -2.0459  -22.8767 C   0  0  0  0  0  0  0  0  0  0  0  0
  -10.4802   -1.1528  -24.1007 C   0  0  0  0  0  0  0  0  0  0  0  0
  -10.4938    0.2298  -23.9332 C   0  0  0  0  0  0  0  0  0  0  0  0
  -10.5329    1.0771  -25.0372 C   0  0  0  0  0  0  0  0  0  0  0  0
  -10.5083    0.5466  -26.3260 C   0  0  0  0  0  0  0  0  0  0  0  0
  -10.4824   -0.8358  -26.5025 C   0  0  0  0  0  0  0  0  0  0  0  0
  -10.4867   -1.6773  -25.3926 C   0  0  0  0  0  0  0  0  0  0  0  0
  -10.5323   -2.7567  -25.5358 H   0  0  0  0  0  0  0  0  0  0  0  0
  -10.4841   -1.2625  -27.5032 H   0  0  0  0  0  0  0  0  0  0  0  0
  -10.5691    1.2021  -27.1928 H   0  0  0  0  0  0  0  0  0  0  0  0
  -10.5948    2.1538  -24.8933 H   0  0  0  0  0  0  0  0  0  0  0  0
  -10.4930    0.6303  -22.9203 H   0  0  0  0  0  0  0  0  0  0  0  0
  -10.7103   -3.0684  -23.1434 H   0  0  0  0  0  0  0  0  0  0  0  0
  -11.1027   -1.7121  -22.0902 H   0  0  0  0  0  0  0  0  0  0  0  0
   -8.6930   -1.3290  -21.2517 N   0  0  0  0  0  0  0  0  0  0  0  0
   -7.3332   -1.4767  -21.1871 N   0  0  0  0  0  0  0  0  0  0  0  0
   -6.5826   -0.8254  -20.1826 C   0  0  0  0  0  0  0  0  0  0  0  0
   -6.9188   -1.0548  -18.8728 C   0  0  0  0  0  0  0  0  0  0  0  0
   -6.2272   -0.5646  -17.8223 N   0  0  0  0  0  0  0  0  0  0  0  0
   -5.1919    0.1997  -18.0881 C   0  0  0  0  0  0  0  0  0  0  0  0
   -4.7751    0.5647  -19.3975 C   0  0  0  0  0  0  0  0  0  0  0  0
   -3.6418    1.3955  -19.6111 C   0  0  0  0  0  0  0  0  0  0  0  0
   -3.2796    1.7521  -20.8829 C   0  0  0  0  0  0  0  0  0  0  0  0
   -4.0498    1.3216  -21.9875 C   0  0  0  0  0  0  0  0  0  0  0  0
   -5.1371    0.4989  -21.8078 C   0  0  0  0  0  0  0  0  0  0  0  0
   -5.5105    0.0746  -20.4972 C   0  0  0  0  0  0  0  0  0  0  0  0
   -5.6799    0.1193  -22.6694 H   0  0  0  0  0  0  0  0  0  0  0  0
   -3.7404    1.5950  -22.9940 H   0  0  0  0  0  0  0  0  0  0  0  0
   -2.3872    2.3484  -21.0555 H   0  0  0  0  0  0  0  0  0  0  0  0
   -3.0748    1.7175  -18.7415 H   0  0  0  0  0  0  0  0  0  0  0  0
   -4.6368    0.5830  -17.2356 H   0  0  0  0  0  0  0  0  0  0  0  0
   -7.7811   -1.6727  -18.6305 H   0  0  0  0  0  0  0  0  0  0  0  0
   -6.8514   -2.3693  -22.1315 C   0  0  0  0  0  0  0  0  0  0  0  0
   -5.7282   -2.7979  -22.2897 O   0  0  0  0  0  0  0  0  0  0  0  0
   -8.8192   -4.1998  -24.0115 H   0  0  0  0  0  0  0  0  0  0  0  0
   -7.0274   -4.1150  -23.9237 H   0  0  0  0  0  0  0  0  0  0  0  0
   -7.9299   -2.9521  -24.9466 H   0  0  0  0  0  0  0  0  0  0  0  0
  1  2  1  0
  2  3  1  0
  3  4  1  0
  4  5  1  0
  5  6  2  0
  6  7  1  0
  7  8  2  0
  8  9  1  0
  9 10  2  0
 10 11  1  0
  9 12  1  0
  8 13  1  0
  7 14  1  0
  6 15  1  0
  4 16  1  0
  4 17  1  0
  3 18  2  0
 18 19  1  0
 19 20  1  0
 20 21  2  0
 21 22  1  0
 22 23  2  0
 23 24  1  0
 24 25  2  0
 25 26  1  0
 26 27  2  0
 27 28  1  0
 28 29  2  0
 28 30  1  0
 27 31  1  0
 26 32  1  0
 25 33  1  0
 23 34  1  0
 21 35  1  0
 19 36  1  0
 36 37  2  0
  1 38  1  0
  1 39  1  0
  1 40  1  0
 36  2  1  0
 10  5  1  0
 29 20  1  0
 29 24  1  0
M  END
>  <cnnaffinities>  (52) 
[5.12962, 5.12903]

>  <score>  (52) 
5.12962

>  <index>  (52) 
54

>  <Smiles>  (52) 
C(n1c(C(c2c(c(c(c(c2[H])[H])[H])[H])[H])([H])[H])nn(c2c(nc(c3c(c(c(c(c23)[H])[H])[H])[H])[H])[H])c1=O)([H])([H])[H]

>  <h>  (52) 
<NA>

>  <Training>  (52) 
True

>  <Success>  (52) 
True

>  <enamine_searched>  (52) 
False

>  <enamine_id>  (52) 
nan

$$$$

     RDKit          3D

 61 66  0  0  0  0  0  0  0  0999 V2000
   -7.0067   -5.4599  -25.0455 C   0  0  0  0  0  0  0  0  0  0  0  0
   -7.3285   -4.7926  -23.8504 O   0  0  0  0  0  0  0  0  0  0  0  0
   -7.9869   -3.5723  -24.0820 C   0  0  0  0  0  0  0  0  0  0  0  0
   -8.2891   -2.9147  -22.7372 C   0  0  1  0  0  0  0  0  0  0  0  0
   -7.0091   -2.5505  -21.9591 C   0  0  0  0  0  0  0  0  0  0  0  0
   -7.3892   -1.3672  -21.2087 N   0  0  0  0  0  0  0  0  0  0  0  0
   -6.6140   -0.7860  -20.1744 C   0  0  0  0  0  0  0  0  0  0  0  0
   -6.9170   -1.0465  -18.8624 C   0  0  0  0  0  0  0  0  0  0  0  0
   -6.2153   -0.5662  -17.8065 N   0  0  0  0  0  0  0  0  0  0  0  0
   -5.1949    0.2180  -18.0652 C   0  0  0  0  0  0  0  0  0  0  0  0
   -4.7826    0.5831  -19.3796 C   0  0  0  0  0  0  0  0  0  0  0  0
   -3.6523    1.4100  -19.6128 C   0  0  0  0  0  0  0  0  0  0  0  0
   -3.2921    1.7505  -20.8893 C   0  0  0  0  0  0  0  0  0  0  0  0
   -4.0470    1.2921  -21.9885 C   0  0  0  0  0  0  0  0  0  0  0  0
   -5.1176    0.4461  -21.7875 C   0  0  0  0  0  0  0  0  0  0  0  0
   -5.5105    0.0695  -20.4753 C   0  0  0  0  0  0  0  0  0  0  0  0
   -5.6881    0.0865  -22.6385 H   0  0  0  0  0  0  0  0  0  0  0  0
   -3.7651    1.6021  -22.9937 H   0  0  0  0  0  0  0  0  0  0  0  0
   -2.4216    2.3753  -21.0642 H   0  0  0  0  0  0  0  0  0  0  0  0
   -3.0796    1.7511  -18.7568 H   0  0  0  0  0  0  0  0  0  0  0  0
   -4.6190    0.5943  -17.2182 H   0  0  0  0  0  0  0  0  0  0  0  0
   -7.7697   -1.6783  -18.6232 H   0  0  0  0  0  0  0  0  0  0  0  0
   -8.5933   -0.8109  -21.5815 C   0  0  0  0  0  0  0  0  0  0  0  0
   -9.1003    0.1509  -21.0502 O   0  0  0  0  0  0  0  0  0  0  0  0
   -9.1346   -1.6111  -22.7893 C   0  0  1  0  0  0  0  0  0  0  0  0
   -8.8586   -0.8356  -24.0994 C   0  0  0  0  0  0  0  0  0  0  0  0
   -9.6725    0.3550  -24.2119 N   0  0  0  0  0  0  0  0  0  0  0  0
   -9.0447    1.5806  -24.6701 C   0  0  0  0  0  0  0  0  0  0  0  0
   -8.2492    2.2745  -23.6071 C   0  0  0  0  0  0  0  0  0  0  0  0
   -6.9134    2.3915  -23.4239 C   0  0  0  0  0  0  0  0  0  0  0  0
   -6.7099    3.1817  -22.3200 N   0  0  0  0  0  4  0  0  0  0  0  0
   -7.8914    3.5699  -21.8329 C   0  0  0  0  0  0  0  0  0  0  0  0
   -8.8464    3.0153  -22.5977 N   0  0  0  0  0  0  0  0  0  0  0  0
   -9.8170    2.9359  -22.3024 H   0  0  0  0  0  0  0  0  0  0  0  0
   -8.0374    4.2767  -21.0289 H   0  0  0  0  0  0  0  0  0  0  0  0
   -5.8099    3.2240  -21.8546 H   0  0  0  0  0  0  0  0  0  0  0  0
   -6.0691    1.9728  -23.9560 H   0  0  0  0  0  0  0  0  0  0  0  0
   -9.8526    2.2211  -25.0392 H   0  0  0  0  0  0  0  0  0  0  0  0
   -8.4014    1.3362  -25.5222 H   0  0  0  0  0  0  0  0  0  0  0  0
  -11.0229    0.3149  -24.0231 C   0  0  0  0  0  0  0  0  0  0  0  0
  -11.7744    1.1996  -24.4160 O   0  0  0  0  0  0  0  0  0  0  0  0
  -11.5190   -0.8711  -23.2605 C   0  0  0  0  0  0  0  0  0  0  0  0
  -12.8973   -0.9729  -23.0907 C   0  0  0  0  0  0  0  0  0  0  0  0
  -13.4230   -1.9335  -22.2569 C   0  0  0  0  0  0  0  0  0  0  0  0
  -12.5451   -2.7955  -21.6048 C   0  0  0  0  0  0  0  0  0  0  0  0
  -13.2018   -3.9143  -20.4517 Cl  0  0  0  0  0  0  0  0  0  0  0  0
  -11.1771   -2.7467  -21.8109 C   0  0  0  0  0  0  0  0  0  0  0  0
  -10.6360   -1.7795  -22.6624 C   0  0  0  0  0  0  0  0  0  0  0  0
  -10.5419   -3.4526  -21.2873 H   0  0  0  0  0  0  0  0  0  0  0  0
  -14.4891   -2.0151  -22.0779 H   0  0  0  0  0  0  0  0  0  0  0  0
  -13.5232   -0.2630  -23.6155 H   0  0  0  0  0  0  0  0  0  0  0  0
   -9.0682   -1.5021  -24.9451 H   0  0  0  0  0  0  0  0  0  0  0  0
   -7.8065   -0.5365  -24.1512 H   0  0  0  0  0  0  0  0  0  0  0  0
   -6.1710   -2.3443  -22.6405 H   0  0  0  0  0  0  0  0  0  0  0  0
   -6.6979   -3.3534  -21.2853 H   0  0  0  0  0  0  0  0  0  0  0  0
   -8.8369   -3.6546  -22.1533 H   0  0  0  0  0  0  0  0  0  0  0  0
   -8.9210   -3.7430  -24.6459 H   0  0  0  0  0  0  0  0  0  0  0  0
   -7.3492   -2.9095  -24.6944 H   0  0  0  0  0  0  0  0  0  0  0  0
   -6.5420   -6.4116  -24.7780 H   0  0  0  0  0  0  0  0  0  0  0  0
   -7.9000   -5.6678  -25.6574 H   0  0  0  0  0  0  0  0  0  0  0  0
   -6.2950   -4.8837  -25.6589 H   0  0  0  0  0  0  0  0  0  0  0  0
  1  2  1  0
  2  3  1  0
  3  4  1  0
  4  5  1  0
  5  6  1  0
  6  7  1  0
  7  8  2  0
  8  9  1  0
  9 10  2  0
 10 11  1  0
 11 12  2  0
 12 13  1  0
 13 14  2  0
 14 15  1  0
 15 16  2  0
 15 17  1  0
 14 18  1  0
 13 19  1  0
 12 20  1  0
 10 21  1  0
  8 22  1  0
  6 23  1  0
 23 24  2  0
 23 25  1  0
 25 26  1  6
 26 27  1  0
 27 28  1  0
 28 29  1  0
 29 30  2  0
 30 31  1  0
 31 32  2  0
 32 33  1  0
 33 34  1  0
 32 35  1  0
 31 36  1  0
 30 37  1  0
 28 38  1  0
 28 39  1  0
 27 40  1  0
 40 41  2  0
 40 42  1  0
 42 43  2  0
 43 44  1  0
 44 45  2  0
 45 46  1  0
 45 47  1  0
 47 48  2  0
 47 49  1  0
 44 50  1  0
 43 51  1  0
 26 52  1  0
 26 53  1  0
  5 54  1  0
  5 55  1  0
  4 56  1  1
  3 57  1  0
  3 58  1  0
  1 59  1  0
  1 60  1  0
  1 61  1  0
 25  4  1  0
 33 29  1  0
 48 42  1  0
 16  7  1  0
 48 25  1  0
 16 11  1  0
M  CHG  1  31   1
M  END
>  <cnnaffinities>  (53) 
[6.02212, 6.04564]

>  <score>  (53) 
6.02212

>  <index>  (53) 
55

>  <Smiles>  (53) 
C(OC([C@]1(C(N(c2c(nc(c3c(c(c(c(c23)[H])[H])[H])[H])[H])[H])C(=O)[C@]21C(N(C(c1c([n+](c(n1[H])[H])[H])[H])([H])[H])C(=O)c1c(c(c(Cl)c(c21)[H])[H])[H])([H])[H])([H])[H])[H])([H])[H])([H])([H])[H]

>  <h>  (53) 
<NA>

>  <Training>  (53) 
True

>  <Success>  (53) 
True

>  <enamine_searched>  (53) 
False

>  <enamine_id>  (53) 
nan

$$$$

     RDKit          3D

 57 62  0  0  0  0  0  0  0  0999 V2000
   -7.4653   -3.4731  -23.8032 C   0  0  0  0  0  0  0  0  0  0  0  0
   -8.3703   -2.9041  -22.7037 C   0  0  1  0  0  0  0  0  0  0  0  0
   -7.6391   -2.7392  -21.3545 C   0  0  0  0  0  0  0  0  0  0  0  0
   -7.3952   -1.3146  -21.2490 N   0  0  0  0  0  0  0  0  0  0  0  0
   -6.6261   -0.7439  -20.2084 C   0  0  0  0  0  0  0  0  0  0  0  0
   -6.8947   -1.0656  -18.9022 C   0  0  0  0  0  0  0  0  0  0  0  0
   -6.2135   -0.5884  -17.8326 N   0  0  0  0  0  0  0  0  0  0  0  0
   -5.1967    0.2040  -18.0746 C   0  0  0  0  0  0  0  0  0  0  0  0
   -4.7850    0.5885  -19.3818 C   0  0  0  0  0  0  0  0  0  0  0  0
   -3.6410    1.4064  -19.5830 C   0  0  0  0  0  0  0  0  0  0  0  0
   -3.2642    1.7698  -20.8453 C   0  0  0  0  0  0  0  0  0  0  0  0
   -4.0336    1.3650  -21.9564 C   0  0  0  0  0  0  0  0  0  0  0  0
   -5.1423    0.5704  -21.7922 C   0  0  0  0  0  0  0  0  0  0  0  0
   -5.5361    0.1405  -20.4929 C   0  0  0  0  0  0  0  0  0  0  0  0
   -5.7220    0.2822  -22.6633 H   0  0  0  0  0  0  0  0  0  0  0  0
   -3.7417    1.6817  -22.9565 H   0  0  0  0  0  0  0  0  0  0  0  0
   -2.3814    2.3807  -21.0064 H   0  0  0  0  0  0  0  0  0  0  0  0
   -3.0773    1.7261  -18.7108 H   0  0  0  0  0  0  0  0  0  0  0  0
   -4.6389    0.5841  -17.2170 H   0  0  0  0  0  0  0  0  0  0  0  0
   -7.7256   -1.7282  -18.6638 H   0  0  0  0  0  0  0  0  0  0  0  0
   -8.2642   -0.5662  -22.0149 C   0  0  0  0  0  0  0  0  0  0  0  0
   -8.3982    0.6334  -21.9231 O   0  0  0  0  0  0  0  0  0  0  0  0
   -9.0131   -1.5095  -22.9861 C   0  0  1  0  0  0  0  0  0  0  0  0
   -8.8209   -1.0288  -24.4494 C   0  0  0  0  0  0  0  0  0  0  0  0
   -9.4778    0.2416  -24.6995 N   0  0  0  0  0  0  0  0  0  0  0  0
   -8.7850    1.2957  -25.4255 C   0  0  0  0  0  0  0  0  0  0  0  0
   -8.2185    2.3318  -24.4879 C   0  0  0  0  0  0  0  0  0  0  0  0
   -6.9199    2.2435  -24.1963 N   0  0  0  0  0  0  0  0  0  0  0  0
   -6.4515    3.2017  -23.3978 C   0  0  0  0  0  0  0  0  0  0  0  0
   -7.2422    4.2048  -22.8720 C   0  0  0  0  0  0  0  0  0  0  0  0
   -8.5829    4.1721  -23.2216 C   0  0  0  0  0  0  0  0  0  0  0  0
   -9.0804    3.2443  -24.0303 N   0  0  0  0  0  0  0  0  0  0  0  0
   -9.2806    4.9201  -22.8557 H   0  0  0  0  0  0  0  0  0  0  0  0
   -6.8330    4.9699  -22.2245 H   0  0  0  0  0  0  0  0  0  0  0  0
   -5.3935    3.1612  -23.1722 H   0  0  0  0  0  0  0  0  0  0  0  0
   -9.5335    1.7654  -26.0715 H   0  0  0  0  0  0  0  0  0  0  0  0
   -7.9836    0.8468  -26.0229 H   0  0  0  0  0  0  0  0  0  0  0  0
  -10.7653    0.4811  -24.3080 C   0  0  0  0  0  0  0  0  0  0  0  0
  -11.4327    1.3949  -24.7779 O   0  0  0  0  0  0  0  0  0  0  0  0
  -11.3058   -0.4715  -23.2875 C   0  0  0  0  0  0  0  0  0  0  0  0
  -12.6705   -0.3840  -23.0126 C   0  0  0  0  0  0  0  0  0  0  0  0
  -13.3067   -1.3419  -22.2449 C   0  0  0  0  0  0  0  0  0  0  0  0
  -12.5167   -2.3603  -21.7301 C   0  0  0  0  0  0  0  0  0  0  0  0
  -13.0918   -3.3101  -20.9759 F   0  0  0  0  0  0  0  0  0  0  0  0
  -11.1501   -2.4232  -21.9073 C   0  0  0  0  0  0  0  0  0  0  0  0
  -10.5121   -1.4727  -22.7156 C   0  0  0  0  0  0  0  0  0  0  0  0
  -10.6197   -3.2352  -21.4210 H   0  0  0  0  0  0  0  0  0  0  0  0
  -14.3771   -1.3169  -22.0573 H   0  0  0  0  0  0  0  0  0  0  0  0
  -13.2330    0.4107  -23.4798 H   0  0  0  0  0  0  0  0  0  0  0  0
   -9.2071   -1.8161  -25.1197 H   0  0  0  0  0  0  0  0  0  0  0  0
   -7.7568   -0.8910  -24.6482 H   0  0  0  0  0  0  0  0  0  0  0  0
   -6.6917   -3.2846  -21.3075 H   0  0  0  0  0  0  0  0  0  0  0  0
   -8.2716   -3.0853  -20.5262 H   0  0  0  0  0  0  0  0  0  0  0  0
   -9.1622   -3.6488  -22.5973 H   0  0  0  0  0  0  0  0  0  0  0  0
   -6.5965   -2.8380  -24.0127 H   0  0  0  0  0  0  0  0  0  0  0  0
   -8.0315   -3.6085  -24.7312 H   0  0  0  0  0  0  0  0  0  0  0  0
   -7.1031   -4.4659  -23.5108 H   0  0  0  0  0  0  0  0  0  0  0  0
  1  2  1  0
  2  3  1  0
  3  4  1  0
  4  5  1  0
  5  6  2  0
  6  7  1  0
  7  8  2  0
  8  9  1  0
  9 10  2  0
 10 11  1  0
 11 12  2  0
 12 13  1  0
 13 14  2  0
 13 15  1  0
 12 16  1  0
 11 17  1  0
 10 18  1  0
  8 19  1  0
  6 20  1  0
  4 21  1  0
 21 22  2  0
 21 23  1  0
 23 24  1  6
 24 25  1  0
 25 26  1  0
 26 27  1  0
 27 28  2  0
 28 29  1  0
 29 30  2  0
 30 31  1  0
 31 32  2  0
 31 33  1  0
 30 34  1  0
 29 35  1  0
 26 36  1  0
 26 37  1  0
 25 38  1  0
 38 39  2  0
 38 40  1  0
 40 41  2  0
 41 42  1  0
 42 43  2  0
 43 44  1  0
 43 45  1  0
 45 46  2  0
 45 47  1  0
 42 48  1  0
 41 49  1  0
 24 50  1  0
 24 51  1  0
  3 52  1  0
  3 53  1  0
  2 54  1  1
  1 55  1  0
  1 56  1  0
  1 57  1  0
 23  2  1  0
 32 27  1  0
 46 40  1  0
 14  5  1  0
 46 23  1  0
 14  9  1  0
M  END
>  <cnnaffinities>  (54) 
[5.59675, 5.68316, 5.6819]

>  <score>  (54) 
5.59675

>  <index>  (54) 
56

>  <Smiles>  (54) 
C([C@]1(C(N(c2c(nc(c3c(c(c(c(c23)[H])[H])[H])[H])[H])[H])C(=O)[C@]21C(N(C(c1nc(c(c(n1)[H])[H])[H])([H])[H])C(=O)c1c(c(c(F)c(c21)[H])[H])[H])([H])[H])([H])[H])[H])([H])([H])[H]

>  <h>  (54) 
<NA>

>  <Training>  (54) 
True

>  <Success>  (54) 
True

>  <enamine_searched>  (54) 
False

>  <enamine_id>  (54) 
nan

$$$$

     RDKit          3D

 59 63  0  0  0  0  0  0  0  0999 V2000
  -14.5344   -1.0178  -23.0756 C   0  0  0  0  0  0  0  0  0  0  0  0
  -13.6029   -2.0688  -22.7223 N   0  0  0  0  0  0  0  0  0  0  0  0
  -13.4090   -2.5567  -21.4641 C   0  0  0  0  0  0  0  0  0  0  0  0
  -13.9755   -2.1446  -20.4598 O   0  0  0  0  0  0  0  0  0  0  0  0
  -12.4796   -3.7892  -21.4459 C   0  0  0  0  0  0  0  0  0  0  0  0
  -11.1771   -3.7154  -22.1148 N   0  0  0  0  0  0  0  0  0  0  0  0
   -9.9881   -3.2484  -21.3951 C   0  0  0  0  0  0  0  0  0  0  0  0
   -8.7928   -2.8963  -22.3282 C   0  0  2  0  0  0  0  0  0  0  0  0
   -7.5438   -2.6119  -21.4580 C   0  0  0  0  0  0  0  0  0  0  0  0
   -6.7452   -3.4018  -20.9951 O   0  0  0  0  0  0  0  0  0  0  0  0
   -7.4133   -1.2485  -21.2805 N   0  0  0  0  0  0  0  0  0  0  0  0
   -6.6480   -0.7318  -20.2051 C   0  0  0  0  0  0  0  0  0  0  0  0
   -6.9181   -1.0848  -18.9045 C   0  0  0  0  0  0  0  0  0  0  0  0
   -6.2362   -0.6074  -17.8335 N   0  0  0  0  0  0  0  0  0  0  0  0
   -5.2300    0.2009  -18.0657 C   0  0  0  0  0  0  0  0  0  0  0  0
   -4.8153    0.6067  -19.3656 C   0  0  0  0  0  0  0  0  0  0  0  0
   -3.6885    1.4438  -19.5756 C   0  0  0  0  0  0  0  0  0  0  0  0
   -3.3540    1.8442  -20.8400 C   0  0  0  0  0  0  0  0  0  0  0  0
   -4.1471    1.4596  -21.9466 C   0  0  0  0  0  0  0  0  0  0  0  0
   -5.2396    0.6465  -21.7676 C   0  0  0  0  0  0  0  0  0  0  0  0
   -5.5764    0.1746  -20.4716 C   0  0  0  0  0  0  0  0  0  0  0  0
   -5.8449    0.3377  -22.6147 H   0  0  0  0  0  0  0  0  0  0  0  0
   -3.8709    1.7801  -22.9474 H   0  0  0  0  0  0  0  0  0  0  0  0
   -2.4719    2.4576  -21.0069 H   0  0  0  0  0  0  0  0  0  0  0  0
   -3.1097    1.7535  -18.7091 H   0  0  0  0  0  0  0  0  0  0  0  0
   -4.6880    0.5878  -17.2027 H   0  0  0  0  0  0  0  0  0  0  0  0
   -7.7151   -1.7890  -18.6701 H   0  0  0  0  0  0  0  0  0  0  0  0
   -8.4570   -0.4957  -21.9475 C   0  0  0  0  0  0  0  0  0  0  0  0
   -9.0093   -1.4644  -23.0244 C   0  0  0  0  0  0  0  0  0  0  0  0
  -10.4576   -1.0813  -23.3437 C   0  0  0  0  0  0  0  0  0  0  0  0
  -11.0878   -1.0566  -22.4506 H   0  0  0  0  0  0  0  0  0  0  0  0
  -10.8952   -1.7741  -24.0682 H   0  0  0  0  0  0  0  0  0  0  0  0
  -10.4930   -0.0805  -23.7859 H   0  0  0  0  0  0  0  0  0  0  0  0
   -8.2061   -1.3846  -24.3300 C   0  0  0  0  0  0  0  0  0  0  0  0
   -8.6057   -2.1054  -25.0517 H   0  0  0  0  0  0  0  0  0  0  0  0
   -8.2856   -0.3876  -24.7743 H   0  0  0  0  0  0  0  0  0  0  0  0
   -7.1495   -1.6272  -24.1749 H   0  0  0  0  0  0  0  0  0  0  0  0
   -8.0793    0.4446  -22.3604 H   0  0  0  0  0  0  0  0  0  0  0  0
   -9.2503   -0.2117  -21.2386 H   0  0  0  0  0  0  0  0  0  0  0  0
   -8.5714   -4.0790  -23.2522 C   0  0  0  0  0  0  0  0  0  0  0  0
   -7.2960   -4.4475  -23.7211 C   0  0  0  0  0  0  0  0  0  0  0  0
   -7.1752   -5.4664  -24.6524 C   0  0  0  0  0  0  0  0  0  0  0  0
   -5.5985   -5.9096  -25.2514 Cl  0  0  0  0  0  0  0  0  0  0  0  0
   -8.2914   -6.1652  -25.1146 C   0  0  0  0  0  0  0  0  0  0  0  0
   -9.5427   -5.8110  -24.6450 C   0  0  0  0  0  0  0  0  0  0  0  0
   -9.6865   -4.7775  -23.7244 C   0  0  0  0  0  0  0  0  0  0  0  0
  -11.0663   -4.4419  -23.2729 C   0  0  0  0  0  0  0  0  0  0  0  0
  -12.0495   -4.7957  -23.9105 O   0  0  0  0  0  0  0  0  0  0  0  0
  -10.4394   -6.3231  -24.9786 H   0  0  0  0  0  0  0  0  0  0  0  0
   -8.1709   -6.9717  -25.8304 H   0  0  0  0  0  0  0  0  0  0  0  0
   -6.4051   -3.9568  -23.3389 H   0  0  0  0  0  0  0  0  0  0  0  0
  -10.2406   -2.3418  -20.8437 H   0  0  0  0  0  0  0  0  0  0  0  0
   -9.6407   -3.9894  -20.6641 H   0  0  0  0  0  0  0  0  0  0  0  0
  -12.3730   -4.1362  -20.4186 H   0  0  0  0  0  0  0  0  0  0  0  0
  -13.0555   -4.5366  -22.0087 H   0  0  0  0  0  0  0  0  0  0  0  0
  -13.3107   -2.6780  -23.4758 H   0  0  0  0  0  0  0  0  0  0  0  0
  -14.0251   -0.0602  -23.1982 H   0  0  0  0  0  0  0  0  0  0  0  0
  -14.9860   -1.2735  -24.0333 H   0  0  0  0  0  0  0  0  0  0  0  0
  -15.3146   -0.9101  -22.3232 H   0  0  0  0  0  0  0  0  0  0  0  0
  1  2  1  0
  2  3  1  0
  3  4  2  0
  3  5  1  0
  5  6  1  0
  6  7  1  0
  8  7  1  1
  8  9  1  0
  9 10  2  0
  9 11  1  0
 11 12  1  0
 12 13  2  0
 13 14  1  0
 14 15  2  0
 15 16  1  0
 16 17  2  0
 17 18  1  0
 18 19  2  0
 19 20  1  0
 20 21  2  0
 20 22  1  0
 19 23  1  0
 18 24  1  0
 17 25  1  0
 15 26  1  0
 13 27  1  0
 11 28  1  0
 28 29  1  0
 29 30  1  0
 30 31  1  0
 30 32  1  0
 30 33  1  0
 29 34  1  0
 34 35  1  0
 34 36  1  0
 34 37  1  0
 28 38  1  0
 28 39  1  0
  8 40  1  0
 40 41  2  0
 41 42  1  0
 42 43  1  0
 42 44  2  0
 44 45  1  0
 45 46  2  0
 46 47  1  0
 47 48  2  0
 45 49  1  0
 44 50  1  0
 41 51  1  0
  7 52  1  0
  7 53  1  0
  5 54  1  0
  5 55  1  0
  2 56  1  0
  1 57  1  0
  1 58  1  0
  1 59  1  0
 47  6  1  0
 29  8  1  0
 46 40  1  0
 21 12  1  0
 21 16  1  0
M  END
>  <cnnaffinities>  (55) 
[6.43221]

>  <score>  (55) 
6.43221

>  <index>  (55) 
57

>  <Smiles>  (55) 
C(N(C(=O)C(N1C([C@@]2(C(=O)N(c3c(nc(c4c(c(c(c(c34)[H])[H])[H])[H])[H])[H])C(C2(C([H])([H])[H])C([H])([H])[H])([H])[H])c2c(c(Cl)c(c(c2C1=O)[H])[H])[H])([H])[H])([H])[H])[H])([H])([H])[H]

>  <h>  (55) 
<NA>

>  <Training>  (55) 
True

>  <Success>  (55) 
True

>  <enamine_searched>  (55) 
False

>  <enamine_id>  (55) 
nan

$$$$

     RDKit          3D

 42 45  0  0  0  0  0  0  0  0999 V2000
  -10.8190   -3.7889  -21.7201 C   0  0  0  0  0  0  0  0  0  0  0  0
   -9.8402   -3.2184  -22.6375 N   0  0  0  0  0  0  0  0  0  0  0  0
  -10.0012   -1.8811  -23.1869 C   0  0  0  0  0  0  0  0  0  0  0  0
   -8.6461   -1.2002  -23.4801 C   0  0  1  0  0  0  0  0  0  0  0  0
   -8.1205   -0.5295  -22.1904 C   0  0  0  0  0  0  0  0  0  0  0  0
   -8.3614    0.6382  -21.9473 O   0  0  0  0  0  0  0  0  0  0  0  0
   -7.3888   -1.3047  -21.3291 N   0  0  0  0  0  0  0  0  0  0  0  0
   -6.6586   -0.7399  -20.2507 C   0  0  0  0  0  0  0  0  0  0  0  0
   -6.9463   -1.0966  -18.9579 C   0  0  0  0  0  0  0  0  0  0  0  0
   -6.2811   -0.6380  -17.8656 N   0  0  0  0  0  0  0  0  0  0  0  0
   -5.2767    0.1831  -18.0664 C   0  0  0  0  0  0  0  0  0  0  0  0
   -4.8444    0.6017  -19.3566 C   0  0  0  0  0  0  0  0  0  0  0  0
   -3.7129    1.4424  -19.5325 C   0  0  0  0  0  0  0  0  0  0  0  0
   -3.3611    1.8867  -20.7798 C   0  0  0  0  0  0  0  0  0  0  0  0
   -4.1318    1.5139  -21.9031 C   0  0  0  0  0  0  0  0  0  0  0  0
   -5.2137    0.6861  -21.7634 C   0  0  0  0  0  0  0  0  0  0  0  0
   -5.5814    0.1761  -20.4832 C   0  0  0  0  0  0  0  0  0  0  0  0
   -5.7856    0.3997  -22.6386 H   0  0  0  0  0  0  0  0  0  0  0  0
   -3.8527    1.8810  -22.8870 H   0  0  0  0  0  0  0  0  0  0  0  0
   -2.4872    2.5160  -20.9143 H   0  0  0  0  0  0  0  0  0  0  0  0
   -3.1515    1.7314  -18.6502 H   0  0  0  0  0  0  0  0  0  0  0  0
   -4.7288    0.5495  -17.1945 H   0  0  0  0  0  0  0  0  0  0  0  0
   -7.7641   -1.7850  -18.7389 H   0  0  0  0  0  0  0  0  0  0  0  0
   -7.4500   -2.3138  -21.3857 H   0  0  0  0  0  0  0  0  0  0  0  0
   -7.7122   -2.1484  -24.2004 C   0  0  0  0  0  0  0  0  0  0  0  0
   -6.7305   -1.6958  -25.0940 C   0  0  0  0  0  0  0  0  0  0  0  0
   -5.9017   -2.6063  -25.7316 C   0  0  0  0  0  0  0  0  0  0  0  0
   -4.6984   -2.0479  -26.8617 Cl  0  0  0  0  0  0  0  0  0  0  0  0
   -6.0172   -3.9729  -25.5021 C   0  0  0  0  0  0  0  0  0  0  0  0
   -6.9743   -4.4210  -24.6142 C   0  0  0  0  0  0  0  0  0  0  0  0
   -7.8191   -3.5179  -23.9717 C   0  0  0  0  0  0  0  0  0  0  0  0
   -8.8358   -4.0620  -23.0166 C   0  0  0  0  0  0  0  0  0  0  0  0
   -8.7593   -5.2065  -22.5822 O   0  0  0  0  0  0  0  0  0  0  0  0
   -7.1030   -5.4810  -24.4287 H   0  0  0  0  0  0  0  0  0  0  0  0
   -5.3526   -4.6622  -26.0049 H   0  0  0  0  0  0  0  0  0  0  0  0
   -6.6161   -0.6418  -25.3261 H   0  0  0  0  0  0  0  0  0  0  0  0
   -8.8284   -0.3308  -24.1146 H   0  0  0  0  0  0  0  0  0  0  0  0
  -10.5296   -1.2630  -22.4506 H   0  0  0  0  0  0  0  0  0  0  0  0
  -10.6054   -1.9151  -24.1055 H   0  0  0  0  0  0  0  0  0  0  0  0
  -11.3626   -4.6165  -22.1854 H   0  0  0  0  0  0  0  0  0  0  0  0
  -10.2847   -4.2031  -20.8623 H   0  0  0  0  0  0  0  0  0  0  0  0
  -11.5338   -3.0319  -21.3853 H   0  0  0  0  0  0  0  0  0  0  0  0
  1  2  1  0
  2  3  1  0
  3  4  1  0
  4  5  1  0
  5  6  2  0
  5  7  1  0
  7  8  1  0
  8  9  2  0
  9 10  1  0
 10 11  2  0
 11 12  1  0
 12 13  2  0
 13 14  1  0
 14 15  2  0
 15 16  1  0
 16 17  2  0
 16 18  1  0
 15 19  1  0
 14 20  1  0
 13 21  1  0
 11 22  1  0
  9 23  1  0
  7 24  1  0
  4 25  1  0
 25 26  2  0
 26 27  1  0
 27 28  1  0
 27 29  2  0
 29 30  1  0
 30 31  2  0
 31 32  1  0
 32 33  2  0
 30 34  1  0
 29 35  1  0
 26 36  1  0
  4 37  1  6
  3 38  1  0
  3 39  1  0
  1 40  1  0
  1 41  1  0
  1 42  1  0
 32  2  1  0
 17  8  1  0
 31 25  1  0
 17 12  1  0
M  END
>  <cnnaffinities>  (56) 
[4.96658]

>  <score>  (56) 
4.96658

>  <index>  (56) 
58

>  <Smiles>  (56) 
C(N1C([C@@](C(=O)N(c2c(nc(c3c(c(c(c(c23)[H])[H])[H])[H])[H])[H])[H])(c2c(c(Cl)c(c(c2C1=O)[H])[H])[H])[H])([H])[H])([H])([H])[H]

>  <h>  (56) 
<NA>

>  <Training>  (56) 
True

>  <Success>  (56) 
True

>  <enamine_searched>  (56) 
False

>  <enamine_id>  (56) 
nan

$$$$

     RDKit          3D

 60 65  0  0  0  0  0  0  0  0999 V2000
  -10.3191    1.2945  -28.3795 C   0  0  0  0  0  0  0  0  0  0  0  0
  -10.3243    1.2534  -26.9388 N   0  0  0  0  0  0  0  0  0  0  0  0
   -9.1770    1.2272  -26.2186 C   0  0  0  0  0  0  0  0  0  0  0  0
   -8.0568    1.1443  -26.6918 O   0  0  0  0  0  0  0  0  0  0  0  0
   -9.4486    1.3084  -24.7116 C   0  0  0  0  0  0  0  0  0  0  0  0
  -10.0191    0.0696  -24.2056 N   0  0  0  0  0  0  0  0  0  0  0  0
   -9.1551   -1.0842  -24.0266 C   0  0  0  0  0  0  0  0  0  0  0  0
   -9.4268   -1.8402  -22.6980 C   0  0  2  0  0  0  0  0  0  0  0  0
   -8.8960   -0.9723  -21.5220 C   0  0  0  0  0  0  0  0  0  0  0  0
   -9.4766   -0.0790  -20.9466 O   0  0  0  0  0  0  0  0  0  0  0  0
   -7.5973   -1.3576  -21.2696 N   0  0  0  0  0  0  0  0  0  0  0  0
   -6.8482   -0.7697  -20.2259 C   0  0  0  0  0  0  0  0  0  0  0  0
   -7.1170   -1.1248  -18.9281 C   0  0  0  0  0  0  0  0  0  0  0  0
   -6.3759   -0.7284  -17.8666 N   0  0  0  0  0  0  0  0  0  0  0  0
   -5.3459    0.0445  -18.0993 C   0  0  0  0  0  0  0  0  0  0  0  0
   -4.9841    0.5253  -19.3884 C   0  0  0  0  0  0  0  0  0  0  0  0
   -3.8744    1.3867  -19.5796 C   0  0  0  0  0  0  0  0  0  0  0  0
   -3.5979    1.8900  -20.8183 C   0  0  0  0  0  0  0  0  0  0  0  0
   -4.4151    1.5585  -21.9199 C   0  0  0  0  0  0  0  0  0  0  0  0
   -5.4749    0.6954  -21.7661 C   0  0  0  0  0  0  0  0  0  0  0  0
   -5.7784    0.1462  -20.4924 C   0  0  0  0  0  0  0  0  0  0  0  0
   -6.0975    0.4353  -22.6165 H   0  0  0  0  0  0  0  0  0  0  0  0
   -4.1988    1.9832  -22.8939 H   0  0  0  0  0  0  0  0  0  0  0  0
   -2.7505    2.5553  -20.9621 H   0  0  0  0  0  0  0  0  0  0  0  0
   -3.2660    1.6385  -18.7161 H   0  0  0  0  0  0  0  0  0  0  0  0
   -4.7440    0.3415  -17.2402 H   0  0  0  0  0  0  0  0  0  0  0  0
   -7.9621   -1.7716  -18.7015 H   0  0  0  0  0  0  0  0  0  0  0  0
   -7.1788   -2.5141  -22.0348 C   0  0  0  0  0  0  0  0  0  0  0  0
   -8.5054   -3.0872  -22.5557 C   0  0  2  0  0  0  0  0  0  0  0  0
   -8.2543   -3.9937  -23.7770 C   0  0  0  0  0  0  0  0  0  0  0  0
   -7.2728   -5.0751  -23.4300 C   0  0  0  0  0  0  0  0  0  0  0  0
   -5.9701   -4.9816  -23.6758 N   0  0  0  0  0  0  0  0  0  0  0  0
   -5.4418   -6.0835  -23.1500 N   0  0  0  0  0  0  0  0  0  0  0  0
   -6.3914   -6.8042  -22.6152 N   0  0  0  0  0  2  0  0  0  0  0  0
   -7.5615   -6.1910  -22.7769 N   0  0  0  0  0  0  0  0  0  0  0  0
   -7.7941   -3.4265  -24.5925 H   0  0  0  0  0  0  0  0  0  0  0  0
   -9.1797   -4.4517  -24.1335 H   0  0  0  0  0  0  0  0  0  0  0  0
   -8.9384   -3.7035  -21.7590 H   0  0  0  0  0  0  0  0  0  0  0  0
   -6.6373   -3.2493  -21.4300 H   0  0  0  0  0  0  0  0  0  0  0  0
   -6.5285   -2.2342  -22.8821 H   0  0  0  0  0  0  0  0  0  0  0  0
  -10.9254   -2.0439  -22.5651 C   0  0  0  0  0  0  0  0  0  0  0  0
  -11.4899   -3.0468  -21.7607 C   0  0  0  0  0  0  0  0  0  0  0  0
  -12.8270   -2.9700  -21.3962 C   0  0  0  0  0  0  0  0  0  0  0  0
  -13.5290   -4.1421  -20.3246 Cl  0  0  0  0  0  0  0  0  0  0  0  0
  -13.6490   -1.9217  -21.8035 C   0  0  0  0  0  0  0  0  0  0  0  0
  -13.1305   -0.9975  -22.6792 C   0  0  0  0  0  0  0  0  0  0  0  0
  -11.8049   -1.0810  -23.0925 C   0  0  0  0  0  0  0  0  0  0  0  0
  -11.3624   -0.0522  -24.0791 C   0  0  0  0  0  0  0  0  0  0  0  0
  -12.1474    0.6685  -24.7005 O   0  0  0  0  0  0  0  0  0  0  0  0
  -13.7165   -0.1617  -23.0364 H   0  0  0  0  0  0  0  0  0  0  0  0
  -14.6665   -1.8447  -21.4332 H   0  0  0  0  0  0  0  0  0  0  0  0
  -10.9093   -3.8850  -21.3891 H   0  0  0  0  0  0  0  0  0  0  0  0
   -8.1318   -0.7094  -24.0560 H   0  0  0  0  0  0  0  0  0  0  0  0
   -9.2717   -1.7831  -24.8635 H   0  0  0  0  0  0  0  0  0  0  0  0
   -8.5020    1.4805  -24.1949 H   0  0  0  0  0  0  0  0  0  0  0  0
  -10.1526    2.1239  -24.4841 H   0  0  0  0  0  0  0  0  0  0  0  0
  -11.1976    1.2486  -26.4258 H   0  0  0  0  0  0  0  0  0  0  0  0
  -10.3955    0.3010  -28.8298 H   0  0  0  0  0  0  0  0  0  0  0  0
   -9.3884    1.7410  -28.7284 H   0  0  0  0  0  0  0  0  0  0  0  0
  -11.1534    1.9065  -28.7222 H   0  0  0  0  0  0  0  0  0  0  0  0
  1  2  1  0
  2  3  1  0
  3  4  2  0
  3  5  1  0
  5  6  1  0
  6  7  1  0
  8  7  1  6
  8  9  1  0
  9 10  2  0
  9 11  1  0
 11 12  1  0
 12 13  2  0
 13 14  1  0
 14 15  2  0
 15 16  1  0
 16 17  2  0
 17 18  1  0
 18 19  2  0
 19 20  1  0
 20 21  2  0
 20 22  1  0
 19 23  1  0
 18 24  1  0
 17 25  1  0
 15 26  1  0
 13 27  1  0
 11 28  1  0
 28 29  1  0
 29 30  1  0
 30 31  1  0
 31 32  1  0
 32 33  2  0
 33 34  1  0
 34 35  1  0
 30 36  1  0
 30 37  1  0
 29 38  1  1
 28 39  1  0
 28 40  1  0
  8 41  1  0
 41 42  2  0
 42 43  1  0
 43 44  1  0
 43 45  2  0
 45 46  1  0
 46 47  2  0
 47 48  1  0
 48 49  2  0
 46 50  1  0
 45 51  1  0
 42 52  1  0
  7 53  1  0
  7 54  1  0
  5 55  1  0
  5 56  1  0
  2 57  1  0
  1 58  1  0
  1 59  1  0
  1 60  1  0
 48  6  1  0
 29  8  1  0
 35 31  2  0
 47 41  1  0
 21 12  1  0
 21 16  1  0
M  CHG  1  34  -1
M  END
>  <cnnaffinities>  (57) 
[6.47888, 6.1791]

>  <score>  (57) 
6.47888

>  <index>  (57) 
59

>  <Smiles>  (57) 
C(N(C(=O)C(N1C([C@@]2(C(=O)N(c3c(nc(c4c(c(c(c(c34)[H])[H])[H])[H])[H])[H])C([C@@]2(C(c2nn[n-]n2)([H])[H])[H])([H])[H])c2c(c(Cl)c(c(c2C1=O)[H])[H])[H])([H])[H])([H])[H])[H])([H])([H])[H]

>  <h>  (57) 
<NA>

>  <Training>  (57) 
True

>  <Success>  (57) 
True

>  <enamine_searched>  (57) 
False

>  <enamine_id>  (57) 
nan

$$$$

     RDKit          3D

 62 67  0  0  0  0  0  0  0  0999 V2000
  -11.4256    2.5486  -22.0979 C   0  0  0  0  0  0  0  0  0  0  0  0
  -10.4588    3.2833  -23.0162 C   0  0  0  0  0  0  0  0  0  0  0  0
   -9.1503    2.6810  -23.2654 N   0  0  0  0  0  0  0  0  0  0  0  0
   -6.9360    2.8456  -23.5329 N   0  0  0  0  0  0  0  0  0  0  0  0
   -7.9606    3.1919  -22.8009 C   0  0  0  0  0  0  0  0  0  0  0  0
   -7.4638    2.0829  -24.5469 C   0  0  0  0  0  0  0  0  0  0  0  0
   -8.8181    1.9490  -24.3939 C   0  0  0  0  0  0  0  0  0  0  0  0
   -9.8138    1.1437  -25.1399 C   0  0  0  0  0  0  0  0  0  0  0  0
  -10.2775   -0.0084  -24.3677 N   0  0  0  0  0  0  0  0  0  0  0  0
   -9.3206   -1.0746  -24.1377 C   0  0  0  0  0  0  0  0  0  0  0  0
   -9.4813   -1.7550  -22.7556 C   0  0  2  0  0  0  0  0  0  0  0  0
   -8.9923   -0.8207  -21.6035 C   0  0  0  0  0  0  0  0  0  0  0  0
   -9.6159    0.0647  -21.0592 O   0  0  0  0  0  0  0  0  0  0  0  0
   -7.6962   -1.1613  -21.2911 N   0  0  0  0  0  0  0  0  0  0  0  0
   -6.9674   -0.6148  -20.2094 C   0  0  0  0  0  0  0  0  0  0  0  0
   -7.2304   -1.0011  -18.9202 C   0  0  0  0  0  0  0  0  0  0  0  0
   -6.4491   -0.6747  -17.8605 N   0  0  0  0  0  0  0  0  0  0  0  0
   -5.3882    0.0618  -18.0824 C   0  0  0  0  0  0  0  0  0  0  0  0
   -5.0250    0.5674  -19.3600 C   0  0  0  0  0  0  0  0  0  0  0  0
   -3.8961    1.4043  -19.5591 C   0  0  0  0  0  0  0  0  0  0  0  0
   -3.6491    1.9512  -20.7881 C   0  0  0  0  0  0  0  0  0  0  0  0
   -4.5049    1.6705  -21.8776 C   0  0  0  0  0  0  0  0  0  0  0  0
   -5.5677    0.8152  -21.7177 C   0  0  0  0  0  0  0  0  0  0  0  0
   -5.8534    0.2443  -20.4544 C   0  0  0  0  0  0  0  0  0  0  0  0
   -6.2379    0.6187  -22.5496 H   0  0  0  0  0  0  0  0  0  0  0  0
   -4.3422    2.1444  -22.8412 H   0  0  0  0  0  0  0  0  0  0  0  0
   -2.8066    2.6246  -20.9242 H   0  0  0  0  0  0  0  0  0  0  0  0
   -3.2585    1.6218  -18.7048 H   0  0  0  0  0  0  0  0  0  0  0  0
   -4.7580    0.3047  -17.2260 H   0  0  0  0  0  0  0  0  0  0  0  0
   -8.0913   -1.6302  -18.7022 H   0  0  0  0  0  0  0  0  0  0  0  0
   -7.1738   -2.2210  -22.1227 C   0  0  0  0  0  0  0  0  0  0  0  0
   -8.4518   -2.9169  -22.6246 C   0  0  2  0  0  0  0  0  0  0  0  0
   -8.1822   -3.7561  -23.8680 C   0  0  0  0  0  0  0  0  0  0  0  0
   -7.6766   -3.1535  -24.6318 H   0  0  0  0  0  0  0  0  0  0  0  0
   -9.1045   -4.1487  -24.3091 H   0  0  0  0  0  0  0  0  0  0  0  0
   -7.5215   -4.5980  -23.6353 H   0  0  0  0  0  0  0  0  0  0  0  0
   -8.8000   -3.5678  -21.8147 H   0  0  0  0  0  0  0  0  0  0  0  0
   -6.5166   -2.8800  -21.5490 H   0  0  0  0  0  0  0  0  0  0  0  0
   -6.5897   -1.8161  -22.9687 H   0  0  0  0  0  0  0  0  0  0  0  0
  -10.9517   -2.0805  -22.5661 C   0  0  0  0  0  0  0  0  0  0  0  0
  -11.4023   -3.1465  -21.7768 C   0  0  0  0  0  0  0  0  0  0  0  0
  -12.7021   -3.1288  -21.3035 C   0  0  0  0  0  0  0  0  0  0  0  0
  -13.1101   -4.0918  -20.4609 F   0  0  0  0  0  0  0  0  0  0  0  0
  -13.6050   -2.1135  -21.6067 C   0  0  0  0  0  0  0  0  0  0  0  0
  -13.2108   -1.1547  -22.5119 C   0  0  0  0  0  0  0  0  0  0  0  0
  -11.9215   -1.1800  -23.0435 C   0  0  0  0  0  0  0  0  0  0  0  0
  -11.6015   -0.1687  -24.1043 C   0  0  0  0  0  0  0  0  0  0  0  0
  -12.4764    0.5222  -24.6199 O   0  0  0  0  0  0  0  0  0  0  0  0
  -13.8855   -0.3670  -22.8338 H   0  0  0  0  0  0  0  0  0  0  0  0
  -14.5935   -2.1223  -21.1598 H   0  0  0  0  0  0  0  0  0  0  0  0
  -10.7612   -3.9788  -21.5023 H   0  0  0  0  0  0  0  0  0  0  0  0
   -8.3194   -0.6466  -24.2207 H   0  0  0  0  0  0  0  0  0  0  0  0
   -9.4340   -1.8379  -24.9202 H   0  0  0  0  0  0  0  0  0  0  0  0
  -10.7062    1.7289  -25.3954 H   0  0  0  0  0  0  0  0  0  0  0  0
   -9.3448    0.7893  -26.0670 H   0  0  0  0  0  0  0  0  0  0  0  0
   -6.8421    1.6400  -25.3170 H   0  0  0  0  0  0  0  0  0  0  0  0
   -7.9454    3.8646  -21.9510 H   0  0  0  0  0  0  0  0  0  0  0  0
  -10.9911    3.4288  -23.9709 H   0  0  0  0  0  0  0  0  0  0  0  0
  -10.2625    4.2767  -22.6023 H   0  0  0  0  0  0  0  0  0  0  0  0
  -11.0292    2.2694  -21.1205 H   0  0  0  0  0  0  0  0  0  0  0  0
  -12.2759    3.2281  -21.9689 H   0  0  0  0  0  0  0  0  0  0  0  0
  -11.7891    1.6336  -22.5616 H   0  0  0  0  0  0  0  0  0  0  0  0
  1  2  1  0
  2  3  1  0
  3  4  1  0
  4  5  2  0
  5  6  1  0
  6  7  2  0
  7  8  1  0
  8  9  1  0
  9 10  1  0
 11 10  1  6
 11 12  1  0
 12 13  2  0
 12 14  1  0
 14 15  1  0
 15 16  2  0
 16 17  1  0
 17 18  2  0
 18 19  1  0
 19 20  2  0
 20 21  1  0
 21 22  2  0
 22 23  1  0
 23 24  2  0
 23 25  1  0
 22 26  1  0
 21 27  1  0
 20 28  1  0
 18 29  1  0
 16 30  1  0
 14 31  1  0
 31 32  1  0
 32 33  1  0
 33 34  1  0
 33 35  1  0
 33 36  1  0
 32 37  1  1
 31 38  1  0
 31 39  1  0
 11 40  1  0
 40 41  2  0
 41 42  1  0
 42 43  1  0
 42 44  2  0
 44 45  1  0
 45 46  2  0
 46 47  1  0
 47 48  2  0
 45 49  1  0
 44 50  1  0
 41 51  1  0
 10 52  1  0
 10 53  1  0
  8 54  1  0
  8 55  1  0
  6 56  1  0
  5 57  1  0
  2 58  1  0
  2 59  1  0
  1 60  1  0
  1 61  1  0
  1 62  1  0
  7  3  1  0
 47  9  1  0
 32 11  1  0
 46 40  1  0
 24 15  1  0
 24 19  1  0
M  END
>  <cnnaffinities>  (58) 
[6.60324, 5.87779]

>  <score>  (58) 
6.60324

>  <index>  (58) 
60

>  <Smiles>  (58) 
C(C(n1nc(c(c1C(N1C([C@@]2(C(=O)N(c3c(nc(c4c(c(c(c(c34)[H])[H])[H])[H])[H])[H])C([C@@]2(C([H])([H])[H])[H])([H])[H])c2c(c(F)c(c(c2C1=O)[H])[H])[H])([H])[H])([H])[H])[H])[H])([H])[H])([H])([H])[H]

>  <h>  (58) 
<NA>

>  <Training>  (58) 
True

>  <Success>  (58) 
True

>  <enamine_searched>  (58) 
False

>  <enamine_id>  (58) 
nan

$$$$

     RDKit          3D

 44 47  0  0  0  0  0  0  0  0999 V2000
   -9.0496    0.3355  -21.1197 O   0  0  0  0  0  0  0  0  0  0  0  0
   -8.3586   -0.3328  -21.8680 C   0  0  0  0  0  0  0  0  0  0  0  0
   -7.4327   -1.4152  -21.2762 C   0  0  0  0  0  0  0  0  0  0  0  0
   -6.5691   -0.8365  -20.1740 C   0  0  0  0  0  0  0  0  0  0  0  0
   -6.8759   -1.0412  -18.8526 C   0  0  0  0  0  0  0  0  0  0  0  0
   -6.1904   -0.5359  -17.7922 N   0  0  0  0  0  0  0  0  0  0  0  0
   -5.1551    0.2219  -18.0598 C   0  0  0  0  0  0  0  0  0  0  0  0
   -4.7211    0.5355  -19.3775 C   0  0  0  0  0  0  0  0  0  0  0  0
   -3.5978    1.3686  -19.6162 C   0  0  0  0  0  0  0  0  0  0  0  0
   -3.2256    1.6907  -20.8943 C   0  0  0  0  0  0  0  0  0  0  0  0
   -3.9965    1.2263  -21.9833 C   0  0  0  0  0  0  0  0  0  0  0  0
   -5.0770    0.3968  -21.7783 C   0  0  0  0  0  0  0  0  0  0  0  0
   -5.4602    0.0141  -20.4669 C   0  0  0  0  0  0  0  0  0  0  0  0
   -5.5675   -0.0618  -22.6343 H   0  0  0  0  0  0  0  0  0  0  0  0
   -3.6303    1.3953  -22.9920 H   0  0  0  0  0  0  0  0  0  0  0  0
   -2.3472    2.3057  -21.0838 H   0  0  0  0  0  0  0  0  0  0  0  0
   -3.0570    1.7756  -18.7643 H   0  0  0  0  0  0  0  0  0  0  0  0
   -4.6005    0.6293  -17.2132 H   0  0  0  0  0  0  0  0  0  0  0  0
   -7.7296   -1.6612  -18.5823 H   0  0  0  0  0  0  0  0  0  0  0  0
   -6.8086   -1.8944  -22.0425 H   0  0  0  0  0  0  0  0  0  0  0  0
   -8.0787   -2.1893  -20.8451 H   0  0  0  0  0  0  0  0  0  0  0  0
   -8.3435   -0.1178  -23.2352 N   0  0  0  0  0  0  0  0  0  0  0  0
   -8.0803   -1.1535  -24.2226 C   0  0  0  0  0  0  0  0  0  0  0  0
   -8.9618   -0.9695  -25.4558 C   0  0  0  0  0  0  0  0  0  0  0  0
   -8.8547    0.4315  -26.0381 C   0  0  0  0  0  0  0  0  0  0  0  0
   -9.6597    0.6394  -27.3414 C   0  0  0  0  0  0  0  0  0  0  0  0
   -8.3584    0.9032  -28.1267 C   0  0  0  0  0  0  0  0  0  0  0  0
   -7.5491    0.6975  -26.8308 C   0  0  0  0  0  0  0  0  0  0  0  0
   -6.9876    1.5727  -26.4978 H   0  0  0  0  0  0  0  0  0  0  0  0
   -6.8550   -0.1452  -26.8513 H   0  0  0  0  0  0  0  0  0  0  0  0
   -8.1475    0.1790  -28.9165 H   0  0  0  0  0  0  0  0  0  0  0  0
   -8.2798    1.9028  -28.5596 H   0  0  0  0  0  0  0  0  0  0  0  0
  -10.2248   -0.2366  -27.6658 H   0  0  0  0  0  0  0  0  0  0  0  0
  -10.3564    1.4793  -27.3094 H   0  0  0  0  0  0  0  0  0  0  0  0
   -9.1555    1.4554  -24.9541 C   0  0  0  0  0  0  0  0  0  0  0  0
   -8.2787    1.2560  -23.7284 C   0  0  0  0  0  0  0  0  0  0  0  0
   -7.2384    1.5336  -23.9726 H   0  0  0  0  0  0  0  0  0  0  0  0
   -8.5949    1.9133  -22.9181 H   0  0  0  0  0  0  0  0  0  0  0  0
   -9.0127    2.4641  -25.3536 H   0  0  0  0  0  0  0  0  0  0  0  0
  -10.2125    1.3969  -24.6706 H   0  0  0  0  0  0  0  0  0  0  0  0
   -8.6857   -1.7037  -26.2171 H   0  0  0  0  0  0  0  0  0  0  0  0
  -10.0082   -1.1860  -25.2097 H   0  0  0  0  0  0  0  0  0  0  0  0
   -7.0214   -1.1749  -24.5303 H   0  0  0  0  0  0  0  0  0  0  0  0
   -8.2970   -2.1233  -23.7725 H   0  0  0  0  0  0  0  0  0  0  0  0
  1  2  2  0
  2  3  1  0
  3  4  1  0
  4  5  2  0
  5  6  1  0
  6  7  2  0
  7  8  1  0
  8  9  2  0
  9 10  1  0
 10 11  2  0
 11 12  1  0
 12 13  2  0
 12 14  1  0
 11 15  1  0
 10 16  1  0
  9 17  1  0
  7 18  1  0
  5 19  1  0
  3 20  1  0
  3 21  1  0
  2 22  1  0
 22 23  1  0
 23 24  1  0
 24 25  1  0
 25 26  1  0
 26 27  1  0
 27 28  1  0
 28 29  1  0
 28 30  1  0
 27 31  1  0
 27 32  1  0
 26 33  1  0
 26 34  1  0
 25 35  1  0
 35 36  1  0
 36 37  1  0
 36 38  1  0
 35 39  1  0
 35 40  1  0
 24 41  1  0
 24 42  1  0
 23 43  1  0
 23 44  1  0
 13  4  1  0
 36 22  1  0
 13  8  1  0
 28 25  1  0
M  END
>  <cnnaffinities>  (59) 
[4.83981, 5.03435, 5.03608, 5.03626, 5.03552]

>  <score>  (59) 
4.83981

>  <index>  (59) 
61

>  <Smiles>  (59) 
O=C(C(c1c(nc(c2c(c(c(c(c12)[H])[H])[H])[H])[H])[H])([H])[H])N1C(C(C2(C(C(C2([H])[H])([H])[H])([H])[H])C(C1([H])[H])([H])[H])([H])[H])([H])[H]

>  <h>  (59) 
<NA>

>  <Training>  (59) 
True

>  <Success>  (59) 
True

>  <enamine_searched>  (59) 
False

>  <enamine_id>  (59) 
nan

$$$$

     RDKit          3D

 44 47  0  0  0  0  0  0  0  0999 V2000
   -6.0183   -3.4802  -21.0398 O   0  0  0  0  0  0  0  0  0  0  0  0
   -6.4948   -2.6484  -21.7868 C   0  0  0  0  0  0  0  0  0  0  0  0
   -7.3675   -1.5006  -21.2648 C   0  0  0  0  0  0  0  0  0  0  0  0
   -6.6217   -0.7744  -20.1697 C   0  0  0  0  0  0  0  0  0  0  0  0
   -6.8958   -1.0395  -18.8538 C   0  0  0  0  0  0  0  0  0  0  0  0
   -6.1988   -0.5621  -17.7886 N   0  0  0  0  0  0  0  0  0  0  0  0
   -5.1837    0.2228  -18.0548 C   0  0  0  0  0  0  0  0  0  0  0  0
   -4.7808    0.5879  -19.3683 C   0  0  0  0  0  0  0  0  0  0  0  0
   -3.6361    1.3953  -19.5946 C   0  0  0  0  0  0  0  0  0  0  0  0
   -3.2612    1.7240  -20.8704 C   0  0  0  0  0  0  0  0  0  0  0  0
   -4.0378    1.2916  -21.9713 C   0  0  0  0  0  0  0  0  0  0  0  0
   -5.1240    0.4689  -21.7773 C   0  0  0  0  0  0  0  0  0  0  0  0
   -5.5209    0.0862  -20.4647 C   0  0  0  0  0  0  0  0  0  0  0  0
   -5.6811    0.1143  -22.6383 H   0  0  0  0  0  0  0  0  0  0  0  0
   -3.7524    1.5956  -22.9794 H   0  0  0  0  0  0  0  0  0  0  0  0
   -2.3727    2.3276  -21.0450 H   0  0  0  0  0  0  0  0  0  0  0  0
   -3.0516    1.7161  -18.7316 H   0  0  0  0  0  0  0  0  0  0  0  0
   -4.6135    0.6101  -17.2086 H   0  0  0  0  0  0  0  0  0  0  0  0
   -7.7336   -1.6910  -18.6029 H   0  0  0  0  0  0  0  0  0  0  0  0
   -7.6222   -0.8275  -22.0886 H   0  0  0  0  0  0  0  0  0  0  0  0
   -8.3039   -1.9178  -20.8727 H   0  0  0  0  0  0  0  0  0  0  0  0
   -6.1663   -2.6090  -23.1280 N   0  0  0  0  0  0  0  0  0  0  0  0
   -4.9288   -3.2838  -23.4874 C   0  0  0  0  0  0  0  0  0  0  0  0
   -4.2144   -2.4802  -24.5597 C   0  0  0  0  0  0  0  0  0  0  0  0
   -5.0962   -2.2398  -25.7833 C   0  0  0  0  0  0  0  0  0  0  0  0
   -4.4432   -1.3356  -26.8186 C   0  0  0  0  0  0  0  0  0  0  0  0
   -4.0228    0.0814  -26.5247 C   0  0  0  0  0  0  0  0  0  0  0  0
   -2.9909   -0.9591  -26.8457 C   0  0  0  0  0  0  0  0  0  0  0  0
   -2.5294   -0.9302  -27.8252 H   0  0  0  0  0  0  0  0  0  0  0  0
   -2.3228   -1.3045  -26.0612 H   0  0  0  0  0  0  0  0  0  0  0  0
   -4.0719    0.4743  -25.5114 H   0  0  0  0  0  0  0  0  0  0  0  0
   -4.2652    0.8287  -27.2709 H   0  0  0  0  0  0  0  0  0  0  0  0
   -4.8742   -1.4550  -27.8138 H   0  0  0  0  0  0  0  0  0  0  0  0
   -6.4358   -1.6287  -25.3517 C   0  0  0  0  0  0  0  0  0  0  0  0
   -7.0992   -2.4383  -24.2415 C   0  0  0  0  0  0  0  0  0  0  0  0
   -7.3785   -3.4317  -24.6335 H   0  0  0  0  0  0  0  0  0  0  0  0
   -8.0193   -1.9691  -23.8803 H   0  0  0  0  0  0  0  0  0  0  0  0
   -6.2213   -0.6218  -24.9740 H   0  0  0  0  0  0  0  0  0  0  0  0
   -7.1074   -1.5235  -26.2130 H   0  0  0  0  0  0  0  0  0  0  0  0
   -5.2978   -3.1999  -26.2731 H   0  0  0  0  0  0  0  0  0  0  0  0
   -3.9838   -1.4909  -24.1515 H   0  0  0  0  0  0  0  0  0  0  0  0
   -3.2665   -2.9607  -24.8292 H   0  0  0  0  0  0  0  0  0  0  0  0
   -5.1532   -4.3072  -23.8233 H   0  0  0  0  0  0  0  0  0  0  0  0
   -4.3427   -3.3640  -22.5679 H   0  0  0  0  0  0  0  0  0  0  0  0
  1  2  2  0
  2  3  1  0
  3  4  1  0
  4  5  2  0
  5  6  1  0
  6  7  2  0
  7  8  1  0
  8  9  2  0
  9 10  1  0
 10 11  2  0
 11 12  1  0
 12 13  2  0
 12 14  1  0
 11 15  1  0
 10 16  1  0
  9 17  1  0
  7 18  1  0
  5 19  1  0
  3 20  1  0
  3 21  1  0
  2 22  1  0
 22 23  1  0
 23 24  1  0
 24 25  1  0
 25 26  1  0
 26 27  1  0
 27 28  1  0
 28 29  1  0
 28 30  1  0
 27 31  1  0
 27 32  1  0
 26 33  1  0
 25 34  1  0
 34 35  1  0
 35 36  1  0
 35 37  1  0
 34 38  1  0
 34 39  1  0
 25 40  1  0
 24 41  1  0
 24 42  1  0
 23 43  1  0
 23 44  1  0
 13  4  1  0
 35 22  1  0
 13  8  1  0
 28 26  1  0
M  END
>  <cnnaffinities>  (60) 
[4.6211, 4.57819, 4.57838, 4.62965, 4.62978]

>  <score>  (60) 
4.6211

>  <index>  (60) 
62

>  <Smiles>  (60) 
O=C(C(c1c(nc(c2c(c(c(c(c12)[H])[H])[H])[H])[H])[H])([H])[H])N1C(C(C(C2(C(C2([H])[H])([H])[H])[H])(C(C1([H])[H])([H])[H])[H])([H])[H])([H])[H]

>  <h>  (60) 
<NA>

>  <Training>  (60) 
True

>  <Success>  (60) 
True

>  <enamine_searched>  (60) 
False

>  <enamine_id>  (60) 
nan

$$$$

     RDKit          3D

 57 61  0  0  0  0  0  0  0  0999 V2000
   -7.3522    3.4436  -21.8740 C   0  0  0  0  0  0  0  0  0  0  0  0
   -8.1790    2.9606  -22.9592 N   0  0  0  0  0  0  0  0  0  0  0  0
   -7.6130    2.2449  -23.9548 C   0  0  0  0  0  0  0  0  0  0  0  0
   -6.4004    2.1086  -24.0579 O   0  0  0  0  0  0  0  0  0  0  0  0
   -8.5628    1.6233  -24.9789 C   0  0  0  0  0  0  0  0  0  0  0  0
   -9.3028    0.4905  -24.4607 N   0  0  0  0  0  0  0  0  0  0  0  0
   -8.5966   -0.7633  -24.2754 C   0  0  0  0  0  0  0  0  0  0  0  0
   -9.0062   -1.4700  -22.9577 C   0  0  2  0  0  0  0  0  0  0  0  0
   -8.4555   -0.6863  -21.7402 C   0  0  0  0  0  0  0  0  0  0  0  0
   -8.8642    0.3654  -21.2979 O   0  0  0  0  0  0  0  0  0  0  0  0
   -7.3946   -1.3808  -21.2086 N   0  0  0  0  0  0  0  0  0  0  0  0
   -6.6098   -0.8004  -20.1752 C   0  0  0  0  0  0  0  0  0  0  0  0
   -6.9117   -1.0488  -18.8600 C   0  0  0  0  0  0  0  0  0  0  0  0
   -6.2098   -0.5596  -17.8091 N   0  0  0  0  0  0  0  0  0  0  0  0
   -5.1760    0.2053  -18.0716 C   0  0  0  0  0  0  0  0  0  0  0  0
   -4.7567    0.5593  -19.3869 C   0  0  0  0  0  0  0  0  0  0  0  0
   -3.6266    1.3899  -19.6229 C   0  0  0  0  0  0  0  0  0  0  0  0
   -3.2582    1.7167  -20.9014 C   0  0  0  0  0  0  0  0  0  0  0  0
   -4.0224    1.2571  -21.9956 C   0  0  0  0  0  0  0  0  0  0  0  0
   -5.1083    0.4335  -21.7913 C   0  0  0  0  0  0  0  0  0  0  0  0
   -5.5085    0.0629  -20.4778 C   0  0  0  0  0  0  0  0  0  0  0  0
   -5.6405    0.0225  -22.6456 H   0  0  0  0  0  0  0  0  0  0  0  0
   -3.7220    1.4982  -23.0121 H   0  0  0  0  0  0  0  0  0  0  0  0
   -2.3717    2.3177  -21.0828 H   0  0  0  0  0  0  0  0  0  0  0  0
   -3.0641    1.7483  -18.7648 H   0  0  0  0  0  0  0  0  0  0  0  0
   -4.6211    0.6025  -17.2220 H   0  0  0  0  0  0  0  0  0  0  0  0
   -7.7672   -1.6714  -18.6083 H   0  0  0  0  0  0  0  0  0  0  0  0
   -7.0742   -2.6139  -21.9030 C   0  0  0  0  0  0  0  0  0  0  0  0
   -8.3056   -2.8569  -22.8065 C   0  0  2  0  0  0  0  0  0  0  0  0
   -7.9405   -3.5783  -24.1048 C   0  0  0  0  0  0  0  0  0  0  0  0
   -7.4218   -4.8437  -23.7476 O   0  0  0  0  0  0  0  0  0  0  0  0
   -7.2132   -5.3267  -24.5559 H   0  0  0  0  0  0  0  0  0  0  0  0
   -7.1835   -2.9928  -24.6530 H   0  0  0  0  0  0  0  0  0  0  0  0
   -8.8273   -3.6839  -24.7518 H   0  0  0  0  0  0  0  0  0  0  0  0
   -8.9949   -3.5178  -22.2765 H   0  0  0  0  0  0  0  0  0  0  0  0
   -6.9069   -3.4277  -21.1906 H   0  0  0  0  0  0  0  0  0  0  0  0
   -6.1570   -2.4993  -22.4991 H   0  0  0  0  0  0  0  0  0  0  0  0
  -10.5255   -1.4830  -22.8900 C   0  0  0  0  0  0  0  0  0  0  0  0
  -11.1712   -2.3372  -21.9897 C   0  0  0  0  0  0  0  0  0  0  0  0
  -12.5500   -2.3339  -21.8965 C   0  0  0  0  0  0  0  0  0  0  0  0
  -13.3190   -3.3866  -20.7415 Cl  0  0  0  0  0  0  0  0  0  0  0  0
  -13.3287   -1.4743  -22.6728 C   0  0  0  0  0  0  0  0  0  0  0  0
  -12.6988   -0.5766  -23.5157 C   0  0  0  0  0  0  0  0  0  0  0  0
  -11.3059   -0.5585  -23.6002 C   0  0  0  0  0  0  0  0  0  0  0  0
  -10.6708    0.5415  -24.3975 C   0  0  0  0  0  0  0  0  0  0  0  0
  -11.3366    1.4301  -24.9126 O   0  0  0  0  0  0  0  0  0  0  0  0
  -13.2464    0.1470  -24.1147 H   0  0  0  0  0  0  0  0  0  0  0  0
  -14.4081   -1.5111  -22.5931 H   0  0  0  0  0  0  0  0  0  0  0  0
  -10.6091   -2.9875  -21.3290 H   0  0  0  0  0  0  0  0  0  0  0  0
   -7.5270   -0.5291  -24.2534 H   0  0  0  0  0  0  0  0  0  0  0  0
   -8.8072   -1.4389  -25.1198 H   0  0  0  0  0  0  0  0  0  0  0  0
   -7.9334    1.3273  -25.8274 H   0  0  0  0  0  0  0  0  0  0  0  0
   -9.3263    2.3331  -25.3015 H   0  0  0  0  0  0  0  0  0  0  0  0
   -9.1708    2.8757  -22.8064 H   0  0  0  0  0  0  0  0  0  0  0  0
   -6.6088    4.1567  -22.2412 H   0  0  0  0  0  0  0  0  0  0  0  0
   -7.9974    3.9408  -21.1500 H   0  0  0  0  0  0  0  0  0  0  0  0
   -6.8125    2.6111  -21.4036 H   0  0  0  0  0  0  0  0  0  0  0  0
  1  2  1  0
  2  3  1  0
  3  4  2  0
  3  5  1  0
  5  6  1  0
  6  7  1  0
  8  7  1  6
  8  9  1  0
  9 10  2  0
  9 11  1  0
 11 12  1  0
 12 13  2  0
 13 14  1  0
 14 15  2  0
 15 16  1  0
 16 17  2  0
 17 18  1  0
 18 19  2  0
 19 20  1  0
 20 21  2  0
 20 22  1  0
 19 23  1  0
 18 24  1  0
 17 25  1  0
 15 26  1  0
 13 27  1  0
 11 28  1  0
 28 29  1  0
 29 30  1  0
 30 31  1  0
 31 32  1  0
 30 33  1  0
 30 34  1  0
 29 35  1  1
 28 36  1  0
 28 37  1  0
  8 38  1  0
 38 39  2  0
 39 40  1  0
 40 41  1  0
 40 42  2  0
 42 43  1  0
 43 44  2  0
 44 45  1  0
 45 46  2  0
 43 47  1  0
 42 48  1  0
 39 49  1  0
  7 50  1  0
  7 51  1  0
  5 52  1  0
  5 53  1  0
  2 54  1  0
  1 55  1  0
  1 56  1  0
  1 57  1  0
 45  6  1  0
 29  8  1  0
 44 38  1  0
 21 12  1  0
 21 16  1  0
M  END
>  <cnnaffinities>  (61) 
[5.27335]

>  <score>  (61) 
5.27335

>  <index>  (61) 
63

>  <Smiles>  (61) 
C(N(C(=O)C(N1C([C@@]2(C(=O)N(c3c(nc(c4c(c(c(c(c34)[H])[H])[H])[H])[H])[H])C([C@@]2(C(O[H])([H])[H])[H])([H])[H])c2c(c(Cl)c(c(c2C1=O)[H])[H])[H])([H])[H])([H])[H])[H])([H])([H])[H]

>  <h>  (61) 
<NA>

>  <Training>  (61) 
True

>  <Success>  (61) 
True

>  <enamine_searched>  (61) 
False

>  <enamine_id>  (61) 
nan

$$$$

     RDKit          3D

 55 60  0  0  0  0  0  0  0  0999 V2000
   -7.9003   -3.6526  -24.0558 C   0  0  0  0  0  0  0  0  0  0  0  0
   -8.3029   -2.8542  -22.8073 C   0  0  1  0  0  0  0  0  0  0  0  0
   -7.1109   -2.6361  -21.8503 C   0  0  0  0  0  0  0  0  0  0  0  0
   -7.4043   -1.3758  -21.1963 N   0  0  0  0  0  0  0  0  0  0  0  0
   -6.6088   -0.7980  -20.1681 C   0  0  0  0  0  0  0  0  0  0  0  0
   -6.9044   -1.0511  -18.8556 C   0  0  0  0  0  0  0  0  0  0  0  0
   -6.1984   -0.5605  -17.8050 N   0  0  0  0  0  0  0  0  0  0  0  0
   -5.1687    0.2057  -18.0698 C   0  0  0  0  0  0  0  0  0  0  0  0
   -4.7475    0.5561  -19.3834 C   0  0  0  0  0  0  0  0  0  0  0  0
   -3.6171    1.3874  -19.6214 C   0  0  0  0  0  0  0  0  0  0  0  0
   -3.2439    1.7075  -20.8951 C   0  0  0  0  0  0  0  0  0  0  0  0
   -3.9951    1.2261  -21.9882 C   0  0  0  0  0  0  0  0  0  0  0  0
   -5.0840    0.4035  -21.7830 C   0  0  0  0  0  0  0  0  0  0  0  0
   -5.4989    0.0570  -20.4724 C   0  0  0  0  0  0  0  0  0  0  0  0
   -5.6049   -0.0170  -22.6405 H   0  0  0  0  0  0  0  0  0  0  0  0
   -3.6780    1.4487  -23.0027 H   0  0  0  0  0  0  0  0  0  0  0  0
   -2.3557    2.3055  -21.0826 H   0  0  0  0  0  0  0  0  0  0  0  0
   -3.0644    1.7582  -18.7615 H   0  0  0  0  0  0  0  0  0  0  0  0
   -4.6203    0.6095  -17.2176 H   0  0  0  0  0  0  0  0  0  0  0  0
   -7.7544   -1.6772  -18.5944 H   0  0  0  0  0  0  0  0  0  0  0  0
   -8.3772   -0.6271  -21.8195 C   0  0  0  0  0  0  0  0  0  0  0  0
   -8.7112    0.4760  -21.4457 O   0  0  0  0  0  0  0  0  0  0  0  0
   -8.9273   -1.4340  -23.0306 C   0  0  1  0  0  0  0  0  0  0  0  0
   -8.4349   -0.8108  -24.3601 C   0  0  0  0  0  0  0  0  0  0  0  0
   -9.0663    0.4641  -24.6384 N   0  0  0  0  0  0  0  0  0  0  0  0
   -8.2645    1.6271  -24.9835 C   0  0  0  0  0  0  0  0  0  0  0  0
   -8.0031    2.5352  -23.8123 C   0  0  0  0  0  0  0  0  0  0  0  0
   -6.8078    2.5729  -23.1518 N   0  0  0  0  0  0  0  0  0  0  0  0
   -7.0396    3.4366  -22.1833 C   0  0  0  0  0  0  0  0  0  0  0  0
   -8.2849    3.9302  -22.2921 N   0  0  0  0  0  0  0  0  0  0  0  0
   -8.9165    3.3514  -23.3349 N   0  0  0  0  0  0  0  0  0  0  0  0
   -8.8088    4.4953  -21.6409 H   0  0  0  0  0  0  0  0  0  0  0  0
   -6.3626    3.7139  -21.3917 H   0  0  0  0  0  0  0  0  0  0  0  0
   -8.8138    2.1715  -25.7589 H   0  0  0  0  0  0  0  0  0  0  0  0
   -7.2958    1.2839  -25.3585 H   0  0  0  0  0  0  0  0  0  0  0  0
  -10.4272    0.6075  -24.5945 C   0  0  0  0  0  0  0  0  0  0  0  0
  -11.0051    1.5437  -25.1337 O   0  0  0  0  0  0  0  0  0  0  0  0
  -11.1476   -0.4321  -23.7933 C   0  0  0  0  0  0  0  0  0  0  0  0
  -12.5405   -0.3696  -23.7594 C   0  0  0  0  0  0  0  0  0  0  0  0
  -13.2554   -1.2033  -22.9233 C   0  0  0  0  0  0  0  0  0  0  0  0
  -12.5501   -2.0831  -22.1116 C   0  0  0  0  0  0  0  0  0  0  0  0
  -13.2314   -2.8590  -21.2534 F   0  0  0  0  0  0  0  0  0  0  0  0
  -11.1756   -2.1737  -22.1360 C   0  0  0  0  0  0  0  0  0  0  0  0
  -10.4471   -1.3759  -23.0246 C   0  0  0  0  0  0  0  0  0  0  0  0
  -10.7054   -2.8469  -21.4277 H   0  0  0  0  0  0  0  0  0  0  0  0
  -14.3361   -1.1980  -22.8810 H   0  0  0  0  0  0  0  0  0  0  0  0
  -13.0211    0.3627  -24.3993 H   0  0  0  0  0  0  0  0  0  0  0  0
   -7.3556   -0.6353  -24.2849 H   0  0  0  0  0  0  0  0  0  0  0  0
   -8.6371   -1.5200  -25.1789 H   0  0  0  0  0  0  0  0  0  0  0  0
   -6.1632   -2.5880  -22.4096 H   0  0  0  0  0  0  0  0  0  0  0  0
   -7.0096   -3.4361  -21.1089 H   0  0  0  0  0  0  0  0  0  0  0  0
   -9.0628   -3.4274  -22.2723 H   0  0  0  0  0  0  0  0  0  0  0  0
   -7.0906   -3.1541  -24.6021 H   0  0  0  0  0  0  0  0  0  0  0  0
   -8.7357   -3.7885  -24.7519 H   0  0  0  0  0  0  0  0  0  0  0  0
   -7.5363   -4.6481  -23.7789 H   0  0  0  0  0  0  0  0  0  0  0  0
  1  2  1  0
  2  3  1  0
  3  4  1  0
  4  5  1  0
  5  6  2  0
  6  7  1  0
  7  8  2  0
  8  9  1  0
  9 10  2  0
 10 11  1  0
 11 12  2  0
 12 13  1  0
 13 14  2  0
 13 15  1  0
 12 16  1  0
 11 17  1  0
 10 18  1  0
  8 19  1  0
  6 20  1  0
  4 21  1  0
 21 22  2  0
 21 23  1  0
 23 24  1  6
 24 25  1  0
 25 26  1  0
 26 27  1  0
 27 28  1  0
 28 29  2  0
 29 30  1  0
 30 31  1  0
 30 32  1  0
 29 33  1  0
 26 34  1  0
 26 35  1  0
 25 36  1  0
 36 37  2  0
 36 38  1  0
 38 39  2  0
 39 40  1  0
 40 41  2  0
 41 42  1  0
 41 43  1  0
 43 44  2  0
 43 45  1  0
 40 46  1  0
 39 47  1  0
 24 48  1  0
 24 49  1  0
  3 50  1  0
  3 51  1  0
  2 52  1  1
  1 53  1  0
  1 54  1  0
  1 55  1  0
 23  2  1  0
 31 27  2  0
 44 38  1  0
 14  5  1  0
 44 23  1  0
 14  9  1  0
M  END
>  <cnnaffinities>  (62) 
[5.32937, 5.30207]

>  <score>  (62) 
5.32937

>  <index>  (62) 
64

>  <Smiles>  (62) 
C([C@]1(C(N(c2c(nc(c3c(c(c(c(c23)[H])[H])[H])[H])[H])[H])C(=O)[C@]21C(N(C(c1nc(n(n1)[H])[H])([H])[H])C(=O)c1c(c(c(F)c(c21)[H])[H])[H])([H])[H])([H])[H])[H])([H])([H])[H]

>  <h>  (62) 
<NA>

>  <Training>  (62) 
True

>  <Success>  (62) 
True

>  <enamine_searched>  (62) 
False

>  <enamine_id>  (62) 
nan

$$$$

     RDKit          3D

 55 60  0  0  0  0  0  0  0  0999 V2000
   -8.2205   -4.0464  -23.7109 C   0  0  0  0  0  0  0  0  0  0  0  0
   -8.4767   -3.1806  -22.4791 C   0  0  1  0  0  0  0  0  0  0  0  0
   -7.1742   -2.4794  -22.0367 C   0  0  0  0  0  0  0  0  0  0  0  0
   -7.6466   -1.3533  -21.2581 N   0  0  0  0  0  0  0  0  0  0  0  0
   -6.9096   -0.7474  -20.2129 C   0  0  0  0  0  0  0  0  0  0  0  0
   -7.1845   -1.0648  -18.9079 C   0  0  0  0  0  0  0  0  0  0  0  0
   -6.4330   -0.6685  -17.8525 N   0  0  0  0  0  0  0  0  0  0  0  0
   -5.3873    0.0821  -18.0942 C   0  0  0  0  0  0  0  0  0  0  0  0
   -5.0151    0.5253  -19.3939 C   0  0  0  0  0  0  0  0  0  0  0  0
   -3.8846    1.3557  -19.6086 C   0  0  0  0  0  0  0  0  0  0  0  0
   -3.6021    1.8227  -20.8621 C   0  0  0  0  0  0  0  0  0  0  0  0
   -4.4346    1.4911  -21.9535 C   0  0  0  0  0  0  0  0  0  0  0  0
   -5.5192    0.6657  -21.7737 C   0  0  0  0  0  0  0  0  0  0  0  0
   -5.8201    0.1389  -20.4904 C   0  0  0  0  0  0  0  0  0  0  0  0
   -6.1576    0.4143  -22.6154 H   0  0  0  0  0  0  0  0  0  0  0  0
   -4.2071    1.8860  -22.9399 H   0  0  0  0  0  0  0  0  0  0  0  0
   -2.7432    2.4689  -21.0245 H   0  0  0  0  0  0  0  0  0  0  0  0
   -3.2636    1.6198  -18.7558 H   0  0  0  0  0  0  0  0  0  0  0  0
   -4.7841    0.3850  -17.2364 H   0  0  0  0  0  0  0  0  0  0  0  0
   -8.0391   -1.6959  -18.6753 H   0  0  0  0  0  0  0  0  0  0  0  0
   -8.9715   -1.0524  -21.4820 C   0  0  0  0  0  0  0  0  0  0  0  0
   -9.5629   -0.1396  -20.9529 O   0  0  0  0  0  0  0  0  0  0  0  0
   -9.5099   -2.0147  -22.5834 C   0  0  1  0  0  0  0  0  0  0  0  0
   -9.3819   -1.2434  -23.9165 C   0  0  0  0  0  0  0  0  0  0  0  0
  -10.2723   -0.0944  -23.9275 N   0  0  0  0  0  0  0  0  0  0  0  0
   -9.8306    1.1756  -24.4764 C   0  0  0  0  0  0  0  0  0  0  0  0
   -9.7909    1.1990  -25.9759 C   0  0  0  0  0  0  0  0  0  0  0  0
   -9.1534    0.3719  -26.8337 C   0  0  0  0  0  0  0  0  0  0  0  0
   -9.4633    0.7628  -28.1063 O   0  0  0  0  0  0  0  0  0  0  0  0
  -10.2896    1.8106  -27.9403 C   0  0  0  0  0  0  0  0  0  0  0  0
  -10.5209    2.1275  -26.7128 N   0  0  0  0  0  0  0  0  0  0  0  0
  -10.6549    2.2873  -28.8409 H   0  0  0  0  0  0  0  0  0  0  0  0
   -8.4638   -0.4562  -26.7410 H   0  0  0  0  0  0  0  0  0  0  0  0
  -10.5298    1.9555  -24.1651 H   0  0  0  0  0  0  0  0  0  0  0  0
   -8.8576    1.4135  -24.0219 H   0  0  0  0  0  0  0  0  0  0  0  0
  -11.6120   -0.2671  -23.7205 C   0  0  0  0  0  0  0  0  0  0  0  0
  -12.4529    0.4886  -24.1914 O   0  0  0  0  0  0  0  0  0  0  0  0
  -11.9576   -1.3833  -22.7910 C   0  0  0  0  0  0  0  0  0  0  0  0
  -13.2557   -1.3775  -22.2761 C   0  0  0  0  0  0  0  0  0  0  0  0
  -13.6394   -2.3292  -21.3548 C   0  0  0  0  0  0  0  0  0  0  0  0
  -12.7288   -3.3373  -21.0605 C   0  0  0  0  0  0  0  0  0  0  0  0
  -13.1048   -4.2519  -20.1506 F   0  0  0  0  0  0  0  0  0  0  0  0
  -11.4385   -3.3757  -21.5668 C   0  0  0  0  0  0  0  0  0  0  0  0
  -10.9906   -2.3237  -22.3776 C   0  0  0  0  0  0  0  0  0  0  0  0
  -10.7858   -4.1752  -21.2277 H   0  0  0  0  0  0  0  0  0  0  0  0
  -14.5953   -2.3013  -20.8388 H   0  0  0  0  0  0  0  0  0  0  0  0
  -13.9327   -0.5899  -22.5951 H   0  0  0  0  0  0  0  0  0  0  0  0
   -9.6058   -1.9330  -24.7405 H   0  0  0  0  0  0  0  0  0  0  0  0
   -8.3591   -0.8830  -24.0502 H   0  0  0  0  0  0  0  0  0  0  0  0
   -6.5177   -3.1119  -21.4311 H   0  0  0  0  0  0  0  0  0  0  0  0
   -6.5940   -2.1515  -22.9170 H   0  0  0  0  0  0  0  0  0  0  0  0
   -8.7822   -3.8306  -21.6493 H   0  0  0  0  0  0  0  0  0  0  0  0
   -9.1118   -4.5759  -24.0570 H   0  0  0  0  0  0  0  0  0  0  0  0
   -7.8460   -3.4402  -24.5442 H   0  0  0  0  0  0  0  0  0  0  0  0
   -7.4510   -4.7981  -23.4930 H   0  0  0  0  0  0  0  0  0  0  0  0
  1  2  1  0
  2  3  1  0
  3  4  1  0
  4  5  1  0
  5  6  2  0
  6  7  1  0
  7  8  2  0
  8  9  1  0
  9 10  2  0
 10 11  1  0
 11 12  2  0
 12 13  1  0
 13 14  2  0
 13 15  1  0
 12 16  1  0
 11 17  1  0
 10 18  1  0
  8 19  1  0
  6 20  1  0
  4 21  1  0
 21 22  2  0
 21 23  1  0
 23 24  1  6
 24 25  1  0
 25 26  1  0
 26 27  1  0
 27 28  2  0
 28 29  1  0
 29 30  1  0
 30 31  2  0
 30 32  1  0
 28 33  1  0
 26 34  1  0
 26 35  1  0
 25 36  1  0
 36 37  2  0
 36 38  1  0
 38 39  2  0
 39 40  1  0
 40 41  2  0
 41 42  1  0
 41 43  1  0
 43 44  2  0
 43 45  1  0
 40 46  1  0
 39 47  1  0
 24 48  1  0
 24 49  1  0
  3 50  1  0
  3 51  1  0
  2 52  1  1
  1 53  1  0
  1 54  1  0
  1 55  1  0
 23  2  1  0
 31 27  1  0
 44 38  1  0
 14  5  1  0
 44 23  1  0
 14  9  1  0
M  END
>  <cnnaffinities>  (63) 
[6.22821, 5.12166]

>  <score>  (63) 
6.22821

>  <index>  (63) 
65

>  <Smiles>  (63) 
C([C@]1(C(N(c2c(nc(c3c(c(c(c(c23)[H])[H])[H])[H])[H])[H])C(=O)[C@]21C(N(C(c1c(oc(n1)[H])[H])([H])[H])C(=O)c1c(c(c(F)c(c21)[H])[H])[H])([H])[H])([H])[H])[H])([H])([H])[H]

>  <h>  (63) 
<NA>

>  <Training>  (63) 
True

>  <Success>  (63) 
True

>  <enamine_searched>  (63) 
False

>  <enamine_id>  (63) 
nan

$$$$

     RDKit          3D

 44 47  0  0  0  0  0  0  0  0999 V2000
   -6.7967   -2.9184  -25.6335 C   0  0  0  0  0  0  0  0  0  0  0  0
   -7.7549   -2.1118  -24.7587 C   0  0  0  0  0  0  0  0  0  0  0  0
   -8.4598   -2.9156  -23.6318 C   0  0  1  0  0  0  0  0  0  0  0  0
   -9.3812   -3.9754  -24.2105 C   0  0  0  0  0  0  0  0  0  0  0  0
  -10.4086   -3.7738  -25.1973 C   0  0  0  0  0  0  0  0  0  0  0  0
  -10.9845   -4.9352  -25.6102 C   0  0  0  0  0  0  0  0  0  0  0  0
  -10.3290   -6.2943  -24.7868 S   0  0  0  0  0  0  0  0  0  0  0  0
   -9.2509   -5.2872  -23.8853 C   0  0  0  0  0  0  0  0  0  0  0  0
   -8.2633   -5.8297  -22.8974 C   0  0  0  0  0  0  0  0  0  0  0  0
   -7.0632   -4.8936  -22.8632 C   0  0  0  0  0  0  0  0  0  0  0  0
   -7.5173   -3.5143  -22.6631 N   0  0  0  0  0  0  0  0  0  0  0  0
   -6.7464   -2.7567  -21.8093 C   0  0  0  0  0  0  0  0  0  0  0  0
   -5.6376   -3.1105  -21.4490 O   0  0  0  0  0  0  0  0  0  0  0  0
   -7.3967   -1.4758  -21.2719 C   0  0  0  0  0  0  0  0  0  0  0  0
   -6.6038   -0.8064  -20.1863 C   0  0  0  0  0  0  0  0  0  0  0  0
   -6.8870   -1.0614  -18.8684 C   0  0  0  0  0  0  0  0  0  0  0  0
   -6.2026   -0.5793  -17.7994 N   0  0  0  0  0  0  0  0  0  0  0  0
   -5.1871    0.2130  -18.0553 C   0  0  0  0  0  0  0  0  0  0  0  0
   -4.7747    0.5737  -19.3707 C   0  0  0  0  0  0  0  0  0  0  0  0
   -3.6419    1.3953  -19.5936 C   0  0  0  0  0  0  0  0  0  0  0  0
   -3.2645    1.7233  -20.8701 C   0  0  0  0  0  0  0  0  0  0  0  0
   -4.0320    1.2788  -21.9743 C   0  0  0  0  0  0  0  0  0  0  0  0
   -5.1101    0.4442  -21.7783 C   0  0  0  0  0  0  0  0  0  0  0  0
   -5.5040    0.0592  -20.4687 C   0  0  0  0  0  0  0  0  0  0  0  0
   -5.6576    0.0583  -22.6361 H   0  0  0  0  0  0  0  0  0  0  0  0
   -3.7398    1.5689  -22.9813 H   0  0  0  0  0  0  0  0  0  0  0  0
   -2.3846    2.3332  -21.0475 H   0  0  0  0  0  0  0  0  0  0  0  0
   -3.0630    1.7271  -18.7322 H   0  0  0  0  0  0  0  0  0  0  0  0
   -4.6236    0.6051  -17.2083 H   0  0  0  0  0  0  0  0  0  0  0  0
   -7.7325   -1.7032  -18.6159 H   0  0  0  0  0  0  0  0  0  0  0  0
   -8.3788   -1.7688  -20.8758 H   0  0  0  0  0  0  0  0  0  0  0  0
   -7.5835   -0.7956  -22.1098 H   0  0  0  0  0  0  0  0  0  0  0  0
   -6.4961   -4.9684  -23.8014 H   0  0  0  0  0  0  0  0  0  0  0  0
   -6.3800   -5.1326  -22.0412 H   0  0  0  0  0  0  0  0  0  0  0  0
   -8.7302   -5.8804  -21.9042 H   0  0  0  0  0  0  0  0  0  0  0  0
   -7.9628   -6.8464  -23.1709 H   0  0  0  0  0  0  0  0  0  0  0  0
  -11.7482   -5.0904  -26.3638 H   0  0  0  0  0  0  0  0  0  0  0  0
  -10.7031   -2.7943  -25.5608 H   0  0  0  0  0  0  0  0  0  0  0  0
   -9.0698   -2.1861  -23.0687 H   0  0  0  0  0  0  0  0  0  0  0  0
   -7.2314   -1.2451  -24.3420 H   0  0  0  0  0  0  0  0  0  0  0  0
   -8.5642   -1.7159  -25.3824 H   0  0  0  0  0  0  0  0  0  0  0  0
   -5.9134   -3.2642  -25.0857 H   0  0  0  0  0  0  0  0  0  0  0  0
   -7.2984   -3.7899  -26.0647 H   0  0  0  0  0  0  0  0  0  0  0  0
   -6.4286   -2.3052  -26.4627 H   0  0  0  0  0  0  0  0  0  0  0  0
  1  2  1  0
  2  3  1  0
  3  4  1  0
  4  5  1  0
  5  6  2  0
  6  7  1  0
  7  8  1  0
  8  9  1  0
  9 10  1  0
 10 11  1  0
 11 12  1  0
 12 13  2  0
 12 14  1  0
 14 15  1  0
 15 16  2  0
 16 17  1  0
 17 18  2  0
 18 19  1  0
 19 20  2  0
 20 21  1  0
 21 22  2  0
 22 23  1  0
 23 24  2  0
 23 25  1  0
 22 26  1  0
 21 27  1  0
 20 28  1  0
 18 29  1  0
 16 30  1  0
 14 31  1  0
 14 32  1  0
 10 33  1  0
 10 34  1  0
  9 35  1  0
  9 36  1  0
  6 37  1  0
  5 38  1  0
  3 39  1  1
  2 40  1  0
  2 41  1  0
  1 42  1  0
  1 43  1  0
  1 44  1  0
 11  3  1  0
 24 15  1  0
  8  4  2  0
 24 19  1  0
M  END
>  <cnnaffinities>  (64) 
[4.7049, 5.03892, 5.01691]

>  <score>  (64) 
4.7049

>  <index>  (64) 
66

>  <Smiles>  (64) 
C(C([C@]1(c2c(c(sc2C(C(N1C(=O)C(c1c(nc(c2c(c(c(c(c12)[H])[H])[H])[H])[H])[H])([H])[H])([H])[H])([H])[H])[H])[H])[H])([H])[H])([H])([H])[H]

>  <h>  (64) 
<NA>

>  <Training>  (64) 
True

>  <Success>  (64) 
True

>  <enamine_searched>  (64) 
False

>  <enamine_id>  (64) 
nan

$$$$

     RDKit          3D

 58 63  0  0  0  0  0  0  0  0999 V2000
   -6.4860   -0.2695  -30.5880 C   0  0  0  0  0  0  0  0  0  0  0  0
   -6.3819   -0.2694  -29.0923 C   0  0  0  0  0  0  0  0  0  0  0  0
   -7.0895    0.5903  -28.2010 C   0  0  0  0  0  0  0  0  0  0  0  0
   -6.6809    0.1893  -26.9731 C   0  0  0  0  0  0  0  0  0  0  0  0
   -7.0668    0.6598  -25.6039 C   0  0  0  0  0  0  0  0  0  0  0  0
   -8.1921   -0.0391  -25.0311 N   0  0  0  0  0  0  0  0  0  0  0  0
   -7.9838   -1.3519  -24.4731 C   0  0  0  0  0  0  0  0  0  0  0  0
   -8.7678   -1.5020  -23.1544 C   0  0  2  0  0  0  0  0  0  0  0  0
   -8.1332   -0.5740  -22.0848 C   0  0  0  0  0  0  0  0  0  0  0  0
   -8.2169    0.6338  -22.0091 O   0  0  0  0  0  0  0  0  0  0  0  0
   -7.4049   -1.3489  -21.2154 N   0  0  0  0  0  0  0  0  0  0  0  0
   -6.6193   -0.7836  -20.1833 C   0  0  0  0  0  0  0  0  0  0  0  0
   -6.8976   -1.0612  -18.8665 C   0  0  0  0  0  0  0  0  0  0  0  0
   -6.2010   -0.5697  -17.8154 N   0  0  0  0  0  0  0  0  0  0  0  0
   -5.1726    0.2026  -18.0769 C   0  0  0  0  0  0  0  0  0  0  0  0
   -4.7555    0.5566  -19.3913 C   0  0  0  0  0  0  0  0  0  0  0  0
   -3.6198    1.3810  -19.6149 C   0  0  0  0  0  0  0  0  0  0  0  0
   -3.2431    1.7131  -20.8888 C   0  0  0  0  0  0  0  0  0  0  0  0
   -3.9925    1.2421  -21.9873 C   0  0  0  0  0  0  0  0  0  0  0  0
   -5.0841    0.4311  -21.7927 C   0  0  0  0  0  0  0  0  0  0  0  0
   -5.5096    0.0762  -20.4806 C   0  0  0  0  0  0  0  0  0  0  0  0
   -5.5736   -0.0308  -22.6465 H   0  0  0  0  0  0  0  0  0  0  0  0
   -3.6413    1.4463  -22.9974 H   0  0  0  0  0  0  0  0  0  0  0  0
   -2.3368    2.2842  -21.0673 H   0  0  0  0  0  0  0  0  0  0  0  0
   -3.0660    1.7374  -18.7513 H   0  0  0  0  0  0  0  0  0  0  0  0
   -4.6304    0.6079  -17.2252 H   0  0  0  0  0  0  0  0  0  0  0  0
   -7.7458   -1.6941  -18.6058 H   0  0  0  0  0  0  0  0  0  0  0  0
   -7.4429   -2.7671  -21.5118 C   0  0  0  0  0  0  0  0  0  0  0  0
   -8.5833   -2.9229  -22.5388 C   0  0  2  0  0  0  0  0  0  0  0  0
   -8.3423   -4.0880  -23.5151 C   0  0  0  0  0  0  0  0  0  0  0  0
   -8.3004   -5.0469  -22.9821 H   0  0  0  0  0  0  0  0  0  0  0  0
   -7.3876   -3.9682  -24.0452 H   0  0  0  0  0  0  0  0  0  0  0  0
   -9.1313   -4.1678  -24.2748 H   0  0  0  0  0  0  0  0  0  0  0  0
   -9.5043   -3.1289  -21.9890 H   0  0  0  0  0  0  0  0  0  0  0  0
   -7.6354   -3.3063  -20.5870 H   0  0  0  0  0  0  0  0  0  0  0  0
   -6.4817   -3.1121  -21.9240 H   0  0  0  0  0  0  0  0  0  0  0  0
  -10.2012   -1.0754  -23.4060 C   0  0  0  0  0  0  0  0  0  0  0  0
  -11.2060   -1.4173  -22.4923 C   0  0  0  0  0  0  0  0  0  0  0  0
  -12.4983   -0.9983  -22.7275 C   0  0  0  0  0  0  0  0  0  0  0  0
  -13.4623   -1.3496  -21.8615 F   0  0  0  0  0  0  0  0  0  0  0  0
  -12.8416   -0.2077  -23.8177 C   0  0  0  0  0  0  0  0  0  0  0  0
  -11.8356    0.2222  -24.6589 C   0  0  0  0  0  0  0  0  0  0  0  0
  -10.5239   -0.2026  -24.4547 C   0  0  0  0  0  0  0  0  0  0  0  0
   -9.4557    0.3915  -25.3169 C   0  0  0  0  0  0  0  0  0  0  0  0
   -9.6862    1.2262  -26.1817 O   0  0  0  0  0  0  0  0  0  0  0  0
  -12.0052    0.9364  -25.4558 H   0  0  0  0  0  0  0  0  0  0  0  0
  -13.8761    0.0778  -23.9543 H   0  0  0  0  0  0  0  0  0  0  0  0
  -11.0019   -1.9769  -21.5859 H   0  0  0  0  0  0  0  0  0  0  0  0
   -8.3171   -2.1223  -25.1887 H   0  0  0  0  0  0  0  0  0  0  0  0
   -6.9116   -1.4681  -24.2917 H   0  0  0  0  0  0  0  0  0  0  0  0
   -6.2175    0.5672  -24.9181 H   0  0  0  0  0  0  0  0  0  0  0  0
   -7.3678    1.7049  -25.6758 H   0  0  0  0  0  0  0  0  0  0  0  0
   -5.7891   -0.7995  -27.0922 O   0  0  0  0  0  0  0  0  0  0  0  0
   -5.6012   -1.0914  -28.4342 N   0  0  0  0  0  0  0  0  0  0  0  0
   -7.8193    1.3530  -28.4283 H   0  0  0  0  0  0  0  0  0  0  0  0
   -7.5123   -0.0150  -30.8718 H   0  0  0  0  0  0  0  0  0  0  0  0
   -6.2230   -1.2385  -31.0276 H   0  0  0  0  0  0  0  0  0  0  0  0
   -5.8298    0.4994  -31.0125 H   0  0  0  0  0  0  0  0  0  0  0  0
  1  2  1  0
  2  3  1  0
  3  4  2  0
  4  5  1  0
  5  6  1  0
  6  7  1  0
  8  7  1  6
  8  9  1  0
  9 10  2  0
  9 11  1  0
 11 12  1  0
 12 13  2  0
 13 14  1  0
 14 15  2  0
 15 16  1  0
 16 17  2  0
 17 18  1  0
 18 19  2  0
 19 20  1  0
 20 21  2  0
 20 22  1  0
 19 23  1  0
 18 24  1  0
 17 25  1  0
 15 26  1  0
 13 27  1  0
 11 28  1  0
 28 29  1  0
 29 30  1  0
 30 31  1  0
 30 32  1  0
 30 33  1  0
 29 34  1  1
 28 35  1  0
 28 36  1  0
  8 37  1  0
 37 38  2  0
 38 39  1  0
 39 40  1  0
 39 41  2  0
 41 42  1  0
 42 43  2  0
 43 44  1  0
 44 45  2  0
 42 46  1  0
 41 47  1  0
 38 48  1  0
  7 49  1  0
  7 50  1  0
  5 51  1  0
  5 52  1  0
  4 53  1  0
 53 54  1  0
  3 55  1  0
  1 56  1  0
  1 57  1  0
  1 58  1  0
 54  2  2  0
 44  6  1  0
 29  8  1  0
 43 37  1  0
 21 12  1  0
 21 16  1  0
M  END
>  <cnnaffinities>  (65) 
[5.65681]

>  <score>  (65) 
5.65681

>  <index>  (65) 
67

>  <Smiles>  (65) 
C(c1c(c(C(N2C([C@@]3(C(=O)N(c4c(nc(c5c(c(c(c(c45)[H])[H])[H])[H])[H])[H])C([C@@]3(C([H])([H])[H])[H])([H])[H])c3c(c(F)c(c(c3C2=O)[H])[H])[H])([H])[H])([H])[H])on1)[H])([H])([H])[H]

>  <h>  (65) 
<NA>

>  <Training>  (65) 
True

>  <Success>  (65) 
True

>  <enamine_searched>  (65) 
False

>  <enamine_id>  (65) 
nan

$$$$

     RDKit          3D

 65 70  0  0  0  0  0  0  0  0999 V2000
   -9.0872    0.4126  -21.1292 O   0  0  0  0  0  0  0  0  0  0  0  0
   -8.1292    0.0676  -21.8035 C   0  0  0  0  0  0  0  0  0  0  0  0
   -7.2736   -1.0957  -21.2937 C   0  0  0  0  0  0  0  0  0  0  0  0
   -6.4754   -0.6172  -20.0973 C   0  0  0  0  0  0  0  0  0  0  0  0
   -6.8689   -0.9221  -18.8217 C   0  0  0  0  0  0  0  0  0  0  0  0
   -6.2831   -0.4560  -17.6881 N   0  0  0  0  0  0  0  0  0  0  0  0
   -5.2650    0.3583  -17.8288 C   0  0  0  0  0  0  0  0  0  0  0  0
   -4.7386    0.7618  -19.0858 C   0  0  0  0  0  0  0  0  0  0  0  0
   -3.6525    1.6671  -19.2036 C   0  0  0  0  0  0  0  0  0  0  0  0
   -3.2140    2.0824  -20.4327 C   0  0  0  0  0  0  0  0  0  0  0  0
   -3.8290    1.5874  -21.6001 C   0  0  0  0  0  0  0  0  0  0  0  0
   -4.8662    0.6886  -21.5087 C   0  0  0  0  0  0  0  0  0  0  0  0
   -5.3631    0.2575  -20.2543 C   0  0  0  0  0  0  0  0  0  0  0  0
   -5.3250    0.3211  -22.4174 H   0  0  0  0  0  0  0  0  0  0  0  0
   -3.4876    1.9203  -22.5775 H   0  0  0  0  0  0  0  0  0  0  0  0
   -2.4029    2.7994  -20.5150 H   0  0  0  0  0  0  0  0  0  0  0  0
   -3.1870    2.0346  -18.2931 H   0  0  0  0  0  0  0  0  0  0  0  0
   -4.8023    0.7483  -16.9181 H   0  0  0  0  0  0  0  0  0  0  0  0
   -7.7160   -1.5885  -18.6572 H   0  0  0  0  0  0  0  0  0  0  0  0
   -7.9725   -1.8747  -20.9756 H   0  0  0  0  0  0  0  0  0  0  0  0
   -6.6266   -1.5179  -22.0647 H   0  0  0  0  0  0  0  0  0  0  0  0
   -7.7158    0.7589  -22.9423 N   0  0  0  0  0  0  0  0  0  0  0  0
   -7.2155    0.0708  -24.1469 C   0  0  0  0  0  0  0  0  0  0  0  0
   -8.2993   -0.3405  -25.1167 C   0  0  0  0  0  0  0  0  0  0  0  0
   -8.8323   -1.7335  -25.2543 C   0  0  0  0  0  0  0  0  0  0  0  0
  -10.5102   -1.6472  -26.3053 C   0  0  0  0  0  0  0  0  0  0  0  0
  -10.4060   -1.4042  -26.0403 C   0  0  0  0  0  0  0  0  0  0  0  0
  -10.1952    0.0593  -26.6436 C   0  0  0  0  0  0  0  0  0  0  0  0
  -10.1742    0.3566  -28.4613 Cl  0  0  0  0  0  0  0  0  0  0  0  0
   -8.9676    0.5586  -25.9109 C   0  0  0  0  0  0  0  0  0  0  0  0
   -8.6640    1.5892  -26.0441 H   0  0  0  0  0  0  0  0  0  0  0  0
  -11.0452    0.6754  -26.3320 H   0  0  0  0  0  0  0  0  0  0  0  0
  -10.0085   -2.5491  -26.6682 H   0  0  0  0  0  0  0  0  0  0  0  0
   -8.9790   -2.0960  -24.1850 H   0  0  0  0  0  0  0  0  0  0  0  0
   -6.6667   -0.8195  -23.8210 H   0  0  0  0  0  0  0  0  0  0  0  0
   -6.4614    0.7248  -24.6180 H   0  0  0  0  0  0  0  0  0  0  0  0
   -8.0248    2.1940  -22.9643 C   0  0  2  0  0  0  0  0  0  0  0  0
   -9.4869    2.6054  -23.2394 C   0  0  0  0  0  0  0  0  0  0  0  0
   -9.3782    4.1172  -23.5623 C   0  0  0  0  0  0  0  0  0  0  0  0
   -7.8777    4.3900  -23.4369 C   0  0  2  0  0  0  0  0  0  0  0  0
   -7.2456    3.0924  -23.9380 C   0  0  0  0  0  0  0  0  0  0  0  0
   -7.4843    2.9028  -24.9866 H   0  0  0  0  0  0  0  0  0  0  0  0
   -6.1590    3.0463  -23.7854 H   0  0  0  0  0  0  0  0  0  0  0  0
   -7.5956    4.3375  -21.9247 N   0  0  2  0  0  4  0  0  0  0  0  0
   -6.3201    4.9572  -21.4609 C   0  0  0  0  0  0  0  0  0  0  0  0
   -6.3968    6.4706  -21.3794 C   0  0  0  0  0  0  0  0  0  0  0  0
   -5.1528    7.1740  -20.8219 C   0  0  0  0  0  0  0  0  0  0  0  0
   -4.9888    7.9541  -22.0185 O   0  0  0  0  0  0  0  0  0  0  0  0
   -6.0775    7.2683  -22.6529 C   0  0  0  0  0  0  0  0  0  0  0  0
   -6.8542    7.9567  -23.0086 H   0  0  0  0  0  0  0  0  0  0  0  0
   -5.7233    6.6491  -23.4892 H   0  0  0  0  0  0  0  0  0  0  0  0
   -4.2956    6.5069  -20.6498 H   0  0  0  0  0  0  0  0  0  0  0  0
   -5.2979    7.8016  -19.9355 H   0  0  0  0  0  0  0  0  0  0  0  0
   -7.3314    6.7638  -20.8935 H   0  0  0  0  0  0  0  0  0  0  0  0
   -6.0654    4.5515  -20.4731 H   0  0  0  0  0  0  0  0  0  0  0  0
   -5.5047    4.6613  -22.1379 H   0  0  0  0  0  0  0  0  0  0  0  0
   -7.6705    2.8626  -21.6298 C   0  0  0  0  0  0  0  0  0  0  0  0
   -6.7039    2.5263  -21.2517 H   0  0  0  0  0  0  0  0  0  0  0  0
   -8.4229    2.6642  -20.8708 H   0  0  0  0  0  0  0  0  0  0  0  0
   -8.3613    4.8136  -21.4117 H   0  0  0  0  0  0  0  0  0  0  0  0
   -7.5263    5.3254  -23.8598 H   0  0  0  0  0  0  0  0  0  0  0  0
   -9.7432    4.3436  -24.5691 H   0  0  0  0  0  0  0  0  0  0  0  0
   -9.9321    4.7380  -22.8486 H   0  0  0  0  0  0  0  0  0  0  0  0
  -10.1256    2.3868  -22.3842 H   0  0  0  0  0  0  0  0  0  0  0  0
   -9.8728    2.0561  -24.0941 H   0  0  0  0  0  0  0  0  0  0  0  0
  1  2  2  0
  2  3  1  0
  3  4  1  0
  4  5  2  0
  5  6  1  0
  6  7  2  0
  7  8  1  0
  8  9  2  0
  9 10  1  0
 10 11  2  0
 11 12  1  0
 12 13  2  0
 12 14  1  0
 11 15  1  0
 10 16  1  0
  9 17  1  0
  7 18  1  0
  5 19  1  0
  3 20  1  0
  3 21  1  0
  2 22  1  0
 22 23  1  0
 23 24  1  0
 24 25  2  0
 25 26  1  0
 26 27  2  0
 27 28  1  0
 28 29  1  0
 28 30  2  0
 30 31  1  0
 27 32  1  0
 26 33  1  0
 25 34  1  0
 23 35  1  0
 23 36  1  0
 37 22  1  1
 37 38  1  0
 38 39  1  0
 39 40  1  0
 40 41  1  0
 41 42  1  0
 41 43  1  0
 40 44  1  0
 44 45  1  0
 45 46  1  0
 46 47  1  0
 47 48  1  0
 48 49  1  0
 49 50  1  0
 49 51  1  0
 47 52  1  0
 47 53  1  0
 46 54  1  0
 45 55  1  0
 45 56  1  0
 44 57  1  0
 57 58  1  0
 57 59  1  0
 44 60  1  1
 40 61  1  6
 39 62  1  0
 39 63  1  0
 38 64  1  0
 38 65  1  0
 13  4  1  0
 30 24  1  0
 41 37  1  0
 49 46  1  0
 13  8  1  0
 57 37  1  0
M  CHG  1  44   1
M  END
>  <cnnaffinities>  (66) 
[5.70243]

>  <score>  (66) 
5.70243

>  <index>  (66) 
68

>  <Smiles>  (66) 
O=C(C(c1c(nc(c2c(c(c(c(c12)[H])[H])[H])[H])[H])[H])([H])[H])N(C(c1c(c(c(c(Cl)c1[H])[H])[H])[H])([H])[H])[C@]12C(C([C@](C1([H])[H])([N@+](C(C1(C(OC1([H])[H])([H])[H])[H])([H])[H])(C2([H])[H])[H])[H])([H])[H])([H])[H]

>  <h>  (66) 
<NA>

>  <Training>  (66) 
True

>  <Success>  (66) 
True

>  <enamine_searched>  (66) 
False

>  <enamine_id>  (66) 
nan

$$$$

     RDKit          3D

 63 67  0  0  0  0  0  0  0  0999 V2000
  -10.7227   -5.9210  -28.1669 C   0  0  0  0  0  0  0  0  0  0  0  0
  -10.2960   -5.4187  -27.0107 C   0  0  0  0  0  0  0  0  0  0  0  0
   -9.9513   -3.9595  -26.9985 C   0  0  0  0  0  0  0  0  0  0  0  0
   -9.7404   -3.3416  -28.0328 O   0  0  0  0  0  0  0  0  0  0  0  0
   -9.9121   -3.3656  -25.7468 N   0  0  0  0  0  0  0  0  0  0  0  0
  -10.7445   -3.9373  -24.6888 C   0  0  0  0  0  0  0  0  0  0  0  0
  -11.3011   -2.8228  -23.8385 C   0  0  0  0  0  0  0  0  0  0  0  0
  -10.1608   -2.0788  -23.1861 C   0  0  0  0  0  0  0  0  0  0  0  0
   -9.1680   -1.5949  -24.2326 C   0  0  0  0  0  0  0  0  0  0  0  0
   -9.0420   -2.2801  -25.4637 C   0  0  0  0  0  0  0  0  0  0  0  0
   -8.0516   -1.8973  -26.3870 C   0  0  0  0  0  0  0  0  0  0  0  0
   -7.2183   -0.8277  -26.1136 C   0  0  0  0  0  0  0  0  0  0  0  0
   -7.3731   -0.1028  -24.9365 C   0  0  0  0  0  0  0  0  0  0  0  0
   -8.3515   -0.4878  -24.0294 C   0  0  0  0  0  0  0  0  0  0  0  0
   -8.5264    0.4241  -22.7756 N   0  0  1  0  0  4  0  0  0  0  0  0
   -9.6877    1.4477  -22.8950 C   0  0  0  0  0  0  0  0  0  0  0  0
   -9.4223    2.3502  -24.0537 C   0  0  0  0  0  0  0  0  0  0  0  0
  -10.0913    2.1696  -25.2622 C   0  0  0  0  0  0  0  0  0  0  0  0
   -9.8333    3.0060  -26.3397 C   0  0  0  0  0  0  0  0  0  0  0  0
   -8.9081    4.0372  -26.2195 C   0  0  0  0  0  0  0  0  0  0  0  0
   -8.2403    4.2079  -25.0116 C   0  0  0  0  0  0  0  0  0  0  0  0
   -7.0783    5.4971  -24.8502 Cl  0  0  0  0  0  0  0  0  0  0  0  0
   -8.4782    3.3709  -23.9307 C   0  0  0  0  0  0  0  0  0  0  0  0
   -7.9445    3.5190  -22.9924 H   0  0  0  0  0  0  0  0  0  0  0  0
   -8.6943    4.6939  -27.0564 H   0  0  0  0  0  0  0  0  0  0  0  0
  -10.3565    2.8534  -27.2795 H   0  0  0  0  0  0  0  0  0  0  0  0
  -10.8031    1.3508  -25.3497 H   0  0  0  0  0  0  0  0  0  0  0  0
   -9.7283    2.0015  -21.9554 H   0  0  0  0  0  0  0  0  0  0  0  0
  -10.6169    0.8893  -23.0314 H   0  0  0  0  0  0  0  0  0  0  0  0
   -8.5542   -0.2452  -21.5011 C   0  0  0  0  0  0  0  0  0  0  0  0
   -9.4138    0.0283  -20.7037 O   0  0  0  0  0  0  0  0  0  0  0  0
   -7.4667   -1.2717  -21.2390 C   0  0  0  0  0  0  0  0  0  0  0  0
   -6.5756   -0.7647  -20.1427 C   0  0  0  0  0  0  0  0  0  0  0  0
   -6.8624   -1.0437  -18.8337 C   0  0  0  0  0  0  0  0  0  0  0  0
   -6.1796   -0.5542  -17.7671 N   0  0  0  0  0  0  0  0  0  0  0  0
   -5.1618    0.2301  -18.0255 C   0  0  0  0  0  0  0  0  0  0  0  0
   -4.7484    0.6009  -19.3353 C   0  0  0  0  0  0  0  0  0  0  0  0
   -3.6281    1.4397  -19.5650 C   0  0  0  0  0  0  0  0  0  0  0  0
   -3.2976    1.8258  -20.8337 C   0  0  0  0  0  0  0  0  0  0  0  0
   -4.0818    1.4065  -21.9311 C   0  0  0  0  0  0  0  0  0  0  0  0
   -5.1537    0.5648  -21.7368 C   0  0  0  0  0  0  0  0  0  0  0  0
   -5.5047    0.1269  -20.4305 C   0  0  0  0  0  0  0  0  0  0  0  0
   -5.7139    0.2171  -22.6015 H   0  0  0  0  0  0  0  0  0  0  0  0
   -3.8254    1.7380  -22.9334 H   0  0  0  0  0  0  0  0  0  0  0  0
   -2.4423    2.4737  -21.0053 H   0  0  0  0  0  0  0  0  0  0  0  0
   -3.0600    1.7887  -18.7065 H   0  0  0  0  0  0  0  0  0  0  0  0
   -4.6029    0.6112  -17.1693 H   0  0  0  0  0  0  0  0  0  0  0  0
   -7.7103   -1.6838  -18.5931 H   0  0  0  0  0  0  0  0  0  0  0  0
   -6.9200   -1.4875  -22.1575 H   0  0  0  0  0  0  0  0  0  0  0  0
   -7.9819   -2.1850  -20.9214 H   0  0  0  0  0  0  0  0  0  0  0  0
   -7.6543    1.0051  -22.8069 H   0  0  0  0  0  0  0  0  0  0  0  0
   -6.7769    0.7891  -24.7666 H   0  0  0  0  0  0  0  0  0  0  0  0
   -6.4631   -0.5413  -26.8444 H   0  0  0  0  0  0  0  0  0  0  0  0
   -7.9647   -2.4242  -27.3266 H   0  0  0  0  0  0  0  0  0  0  0  0
  -10.5565   -1.2419  -22.6040 H   0  0  0  0  0  0  0  0  0  0  0  0
   -9.6585   -2.7454  -22.4712 H   0  0  0  0  0  0  0  0  0  0  0  0
  -11.8186   -2.1179  -24.4875 H   0  0  0  0  0  0  0  0  0  0  0  0
  -12.0158   -3.2197  -23.1086 H   0  0  0  0  0  0  0  0  0  0  0  0
  -11.5743   -4.4723  -25.1537 H   0  0  0  0  0  0  0  0  0  0  0  0
  -10.1648   -4.6540  -24.0854 H   0  0  0  0  0  0  0  0  0  0  0  0
  -10.1666   -5.9990  -26.0913 H   0  0  0  0  0  0  0  0  0  0  0  0
  -10.7657   -5.2344  -29.0112 H   0  0  0  0  0  0  0  0  0  0  0  0
  -11.0450   -6.9486  -28.3087 H   0  0  0  0  0  0  0  0  0  0  0  0
  1  2  2  0
  2  3  1  0
  3  4  2  0
  3  5  1  0
  5  6  1  0
  6  7  1  0
  7  8  1  0
  8  9  1  0
  9 10  2  0
 10 11  1  0
 11 12  2  0
 12 13  1  0
 13 14  2  0
 14 15  1  0
 15 16  1  0
 16 17  1  0
 17 18  2  0
 18 19  1  0
 19 20  2  0
 20 21  1  0
 21 22  1  0
 21 23  2  0
 23 24  1  0
 20 25  1  0
 19 26  1  0
 18 27  1  0
 16 28  1  0
 16 29  1  0
 15 30  1  0
 30 31  2  0
 30 32  1  0
 32 33  1  0
 33 34  2  0
 34 35  1  0
 35 36  2  0
 36 37  1  0
 37 38  2  0
 38 39  1  0
 39 40  2  0
 40 41  1  0
 41 42  2  0
 41 43  1  0
 40 44  1  0
 39 45  1  0
 38 46  1  0
 36 47  1  0
 34 48  1  0
 32 49  1  0
 32 50  1  0
 15 51  1  1
 13 52  1  0
 12 53  1  0
 11 54  1  0
  8 55  1  0
  8 56  1  0
  7 57  1  0
  7 58  1  0
  6 59  1  0
  6 60  1  0
  2 61  1  0
  1 62  1  0
  1 63  1  0
 10  5  1  0
 23 17  1  0
 42 33  1  0
 14  9  1  0
 42 37  1  0
M  CHG  1  15   1
M  END
>  <cnnaffinities>  (67) 
[6.32963, 5.66585]

>  <score>  (67) 
6.32963

>  <index>  (67) 
69

>  <Smiles>  (67) 
C(=C(C(=O)N1C(C(C(c2c1c(c(c(c2[N@@+](C(c1c(c(c(c(Cl)c1[H])[H])[H])[H])([H])[H])(C(=O)C(c1c(nc(c2c(c(c(c(c12)[H])[H])[H])[H])[H])[H])([H])[H])[H])[H])[H])[H])([H])[H])([H])[H])([H])[H])[H])([H])[H]

>  <h>  (67) 
<NA>

>  <Training>  (67) 
True

>  <Success>  (67) 
True

>  <enamine_searched>  (67) 
False

>  <enamine_id>  (67) 
nan

$$$$

     RDKit          3D

 52 54  0  0  0  0  0  0  0  0999 V2000
  -11.0125   -7.4178  -26.8367 C   0  0  0  0  0  0  0  0  0  0  0  0
  -10.0032   -6.3343  -26.4860 C   0  0  0  0  0  0  0  0  0  0  0  0
  -10.5811   -4.9860  -26.9029 C   0  0  0  0  0  0  0  0  0  0  0  0
  -11.0413   -5.0490  -27.8911 H   0  0  0  0  0  0  0  0  0  0  0  0
   -9.8378   -4.1891  -26.9318 H   0  0  0  0  0  0  0  0  0  0  0  0
  -11.3719   -4.6700  -26.2155 H   0  0  0  0  0  0  0  0  0  0  0  0
   -9.6708   -6.3765  -24.9822 C   0  0  0  0  0  0  0  0  0  0  0  0
   -8.5459   -5.4492  -24.4660 C   0  0  0  0  0  0  0  0  0  0  0  0
   -7.3873   -5.5199  -25.4796 C   0  0  0  0  0  0  0  0  0  0  0  0
   -7.0991   -6.5628  -25.6610 H   0  0  0  0  0  0  0  0  0  0  0  0
   -6.4868   -4.9863  -25.1690 H   0  0  0  0  0  0  0  0  0  0  0  0
   -7.6817   -5.0859  -26.4395 H   0  0  0  0  0  0  0  0  0  0  0  0
   -8.0535   -5.9674  -23.0895 C   0  0  0  0  0  0  0  0  0  0  0  0
   -6.9740   -5.0514  -22.5350 C   0  0  0  0  0  0  0  0  0  0  0  0
   -7.5292   -3.7156  -22.3383 N   0  0  0  0  0  0  0  0  0  0  0  0
   -6.7487   -2.8156  -21.6763 C   0  0  0  0  0  0  0  0  0  0  0  0
   -5.5804   -3.0463  -21.4017 O   0  0  0  0  0  0  0  0  0  0  0  0
   -7.4217   -1.5006  -21.2587 C   0  0  0  0  0  0  0  0  0  0  0  0
   -6.6475   -0.7998  -20.1877 C   0  0  0  0  0  0  0  0  0  0  0  0
   -6.9269   -1.0865  -18.8800 C   0  0  0  0  0  0  0  0  0  0  0  0
   -6.2557   -0.6038  -17.8044 N   0  0  0  0  0  0  0  0  0  0  0  0
   -5.2280    0.1724  -18.0556 C   0  0  0  0  0  0  0  0  0  0  0  0
   -4.8071    0.5412  -19.3630 C   0  0  0  0  0  0  0  0  0  0  0  0
   -3.6928    1.3897  -19.5792 C   0  0  0  0  0  0  0  0  0  0  0  0
   -3.3750    1.8137  -20.8421 C   0  0  0  0  0  0  0  0  0  0  0  0
   -4.1758    1.4245  -21.9425 C   0  0  0  0  0  0  0  0  0  0  0  0
   -5.2400    0.5781  -21.7626 C   0  0  0  0  0  0  0  0  0  0  0  0
   -5.5685    0.0890  -20.4686 C   0  0  0  0  0  0  0  0  0  0  0  0
   -5.8338    0.2681  -22.6200 H   0  0  0  0  0  0  0  0  0  0  0  0
   -3.9283    1.7874  -22.9387 H   0  0  0  0  0  0  0  0  0  0  0  0
   -2.5238    2.4690  -21.0034 H   0  0  0  0  0  0  0  0  0  0  0  0
   -3.1215    1.7231  -18.7143 H   0  0  0  0  0  0  0  0  0  0  0  0
   -4.6836    0.5630  -17.1950 H   0  0  0  0  0  0  0  0  0  0  0  0
   -7.7442   -1.7695  -18.6425 H   0  0  0  0  0  0  0  0  0  0  0  0
   -7.5632   -0.8733  -22.1461 H   0  0  0  0  0  0  0  0  0  0  0  0
   -8.4216   -1.7379  -20.8705 H   0  0  0  0  0  0  0  0  0  0  0  0
   -8.8736   -3.4579  -22.8531 C   0  0  0  0  0  0  0  0  0  0  0  0
   -9.0407   -3.9835  -24.2832 C   0  0  0  0  0  0  0  0  0  0  0  0
  -10.1062   -3.8985  -24.5275 H   0  0  0  0  0  0  0  0  0  0  0  0
   -8.4988   -3.3132  -24.9647 H   0  0  0  0  0  0  0  0  0  0  0  0
   -9.6310   -3.9190  -22.2027 H   0  0  0  0  0  0  0  0  0  0  0  0
   -9.0596   -2.3814  -22.8489 H   0  0  0  0  0  0  0  0  0  0  0  0
   -6.1188   -4.9948  -23.2194 H   0  0  0  0  0  0  0  0  0  0  0  0
   -6.5536   -5.4141  -21.5922 H   0  0  0  0  0  0  0  0  0  0  0  0
   -8.8878   -6.0070  -22.3715 H   0  0  0  0  0  0  0  0  0  0  0  0
   -7.6624   -6.9881  -23.1719 H   0  0  0  0  0  0  0  0  0  0  0  0
  -10.5955   -6.1626  -24.4236 H   0  0  0  0  0  0  0  0  0  0  0  0
   -9.4106   -7.4089  -24.7222 H   0  0  0  0  0  0  0  0  0  0  0  0
   -9.1048   -6.5341  -27.0830 H   0  0  0  0  0  0  0  0  0  0  0  0
  -10.6354   -8.4276  -26.6448 H   0  0  0  0  0  0  0  0  0  0  0  0
  -11.8920   -7.2598  -26.2083 H   0  0  0  0  0  0  0  0  0  0  0  0
  -11.3207   -7.3376  -27.8882 H   0  0  0  0  0  0  0  0  0  0  0  0
  1  2  1  0
  2  3  1  0
  3  4  1  0
  3  5  1  0
  3  6  1  0
  2  7  1  0
  7  8  1  0
  8  9  1  0
  9 10  1  0
  9 11  1  0
  9 12  1  0
  8 13  1  0
 13 14  1  0
 14 15  1  0
 15 16  1  0
 16 17  2  0
 16 18  1  0
 18 19  1  0
 19 20  2  0
 20 21  1  0
 21 22  2  0
 22 23  1  0
 23 24  2  0
 24 25  1  0
 25 26  2  0
 26 27  1  0
 27 28  2  0
 27 29  1  0
 26 30  1  0
 25 31  1  0
 24 32  1  0
 22 33  1  0
 20 34  1  0
 18 35  1  0
 18 36  1  0
 15 37  1  0
 37 38  1  0
 38 39  1  0
 38 40  1  0
 37 41  1  0
 37 42  1  0
 14 43  1  0
 14 44  1  0
 13 45  1  0
 13 46  1  0
  7 47  1  0
  7 48  1  0
  2 49  1  0
  1 50  1  0
  1 51  1  0
  1 52  1  0
 38  8  1  0
 28 19  1  0
 28 23  1  0
M  END
>  <cnnaffinities>  (68) 
[4.50886, 4.61613]

>  <score>  (68) 
4.50886

>  <index>  (68) 
70

>  <Smiles>  (68) 
C(C(C([H])([H])[H])(C(C1(C([H])([H])[H])C(C(N(C(=O)C(c2c(nc(c3c(c(c(c(c23)[H])[H])[H])[H])[H])[H])([H])[H])C(C1([H])[H])([H])[H])([H])[H])([H])[H])([H])[H])[H])([H])([H])[H]

>  <h>  (68) 
<NA>

>  <Training>  (68) 
True

>  <Success>  (68) 
True

>  <enamine_searched>  (68) 
False

>  <enamine_id>  (68) 
nan

$$$$

     RDKit          3D

 50 54  0  0  0  0  0  0  0  0999 V2000
  -10.3680   -1.0845  -23.3669 C   0  0  0  0  0  0  0  0  0  0  0  0
   -8.9343   -1.4262  -22.9903 C   0  0  1  0  0  0  0  0  0  0  0  0
   -8.3990   -0.4703  -21.9150 C   0  0  0  0  0  0  0  0  0  0  0  0
   -7.3795   -1.2521  -21.2480 N   0  0  0  0  0  0  0  0  0  0  0  0
   -6.6108   -0.7453  -20.1767 C   0  0  0  0  0  0  0  0  0  0  0  0
   -6.8907   -1.0816  -18.8760 C   0  0  0  0  0  0  0  0  0  0  0  0
   -6.2074   -0.5957  -17.8083 N   0  0  0  0  0  0  0  0  0  0  0  0
   -5.2050    0.2165  -18.0476 C   0  0  0  0  0  0  0  0  0  0  0  0
   -4.7924    0.6167  -19.3520 C   0  0  0  0  0  0  0  0  0  0  0  0
   -3.6691    1.4533  -19.5771 C   0  0  0  0  0  0  0  0  0  0  0  0
   -3.3356    1.8368  -20.8477 C   0  0  0  0  0  0  0  0  0  0  0  0
   -4.1222    1.4285  -21.9501 C   0  0  0  0  0  0  0  0  0  0  0  0
   -5.2044    0.6071  -21.7605 C   0  0  0  0  0  0  0  0  0  0  0  0
   -5.5434    0.1607  -20.4550 C   0  0  0  0  0  0  0  0  0  0  0  0
   -5.7949    0.2673  -22.6068 H   0  0  0  0  0  0  0  0  0  0  0  0
   -3.8494    1.7412  -22.9546 H   0  0  0  0  0  0  0  0  0  0  0  0
   -2.4586    2.4535  -21.0235 H   0  0  0  0  0  0  0  0  0  0  0  0
   -3.0869    1.7707  -18.7167 H   0  0  0  0  0  0  0  0  0  0  0  0
   -4.6587    0.6054  -17.1876 H   0  0  0  0  0  0  0  0  0  0  0  0
   -7.7012   -1.7715  -18.6408 H   0  0  0  0  0  0  0  0  0  0  0  0
   -7.4793   -2.6065  -21.4869 C   0  0  0  0  0  0  0  0  0  0  0  0
   -6.6760   -3.4108  -21.0508 O   0  0  0  0  0  0  0  0  0  0  0  0
   -8.7184   -2.8586  -22.3750 C   0  0  1  0  0  0  0  0  0  0  0  0
   -9.9103   -3.2875  -21.4735 C   0  0  0  0  0  0  0  0  0  0  0  0
  -11.0795   -3.7279  -22.2366 N   0  0  0  0  0  0  0  0  0  0  0  0
  -12.4466   -3.4996  -21.7869 C   0  0  0  0  0  0  0  0  0  0  0  0
  -13.0487   -2.2416  -22.2707 C   0  0  0  0  0  0  0  0  0  0  0  0
  -13.5773   -1.2961  -22.6851 N   0  0  0  0  0  0  0  0  0  0  0  0
  -12.5033   -3.5301  -20.6997 H   0  0  0  0  0  0  0  0  0  0  0  0
  -13.0650   -4.3023  -22.1958 H   0  0  0  0  0  0  0  0  0  0  0  0
  -10.9323   -4.5718  -23.3070 C   0  0  0  0  0  0  0  0  0  0  0  0
  -11.8830   -5.1175  -23.8450 O   0  0  0  0  0  0  0  0  0  0  0  0
   -9.5371   -4.7614  -23.8069 C   0  0  0  0  0  0  0  0  0  0  0  0
   -9.3323   -5.7557  -24.7605 C   0  0  0  0  0  0  0  0  0  0  0  0
   -8.0905   -5.9348  -25.3400 C   0  0  0  0  0  0  0  0  0  0  0  0
   -7.0575   -5.0895  -24.9453 C   0  0  0  0  0  0  0  0  0  0  0  0
   -5.8501   -5.2379  -25.5148 F   0  0  0  0  0  0  0  0  0  0  0  0
   -7.2208   -4.1065  -23.9880 C   0  0  0  0  0  0  0  0  0  0  0  0
   -8.4807   -3.9412  -23.3975 C   0  0  0  0  0  0  0  0  0  0  0  0
   -6.3630   -3.5143  -23.6779 H   0  0  0  0  0  0  0  0  0  0  0  0
   -7.9036   -6.7064  -26.0818 H   0  0  0  0  0  0  0  0  0  0  0  0
  -10.1806   -6.3736  -25.0330 H   0  0  0  0  0  0  0  0  0  0  0  0
   -9.5609   -4.0806  -20.8022 H   0  0  0  0  0  0  0  0  0  0  0  0
  -10.1868   -2.4315  -20.8572 H   0  0  0  0  0  0  0  0  0  0  0  0
   -9.1967   -0.1918  -21.2099 H   0  0  0  0  0  0  0  0  0  0  0  0
   -8.0027    0.4699  -22.3144 H   0  0  0  0  0  0  0  0  0  0  0  0
   -8.2814   -1.3762  -23.8743 H   0  0  0  0  0  0  0  0  0  0  0  0
  -10.4509   -0.1341  -23.8997 H   0  0  0  0  0  0  0  0  0  0  0  0
  -10.9738   -0.9911  -22.4616 H   0  0  0  0  0  0  0  0  0  0  0  0
  -10.8163   -1.8680  -23.9830 H   0  0  0  0  0  0  0  0  0  0  0  0
  1  2  1  0
  2  3  1  0
  3  4  1  0
  4  5  1  0
  5  6  2  0
  6  7  1  0
  7  8  2  0
  8  9  1  0
  9 10  2  0
 10 11  1  0
 11 12  2  0
 12 13  1  0
 13 14  2  0
 13 15  1  0
 12 16  1  0
 11 17  1  0
 10 18  1  0
  8 19  1  0
  6 20  1  0
  4 21  1  0
 21 22  2  0
 21 23  1  0
 23 24  1  1
 24 25  1  0
 25 26  1  0
 26 27  1  0
 27 28  3  0
 26 29  1  0
 26 30  1  0
 25 31  1  0
 31 32  2  0
 31 33  1  0
 33 34  2  0
 34 35  1  0
 35 36  2  0
 36 37  1  0
 36 38  1  0
 38 39  2  0
 38 40  1  0
 35 41  1  0
 34 42  1  0
 24 43  1  0
 24 44  1  0
  3 45  1  0
  3 46  1  0
  2 47  1  6
  1 48  1  0
  1 49  1  0
  1 50  1  0
 23  2  1  0
 39 33  1  0
 14  5  1  0
 39 23  1  0
 14  9  1  0
M  END
>  <cnnaffinities>  (69) 
[6.17251]

>  <score>  (69) 
6.17251

>  <index>  (69) 
71

>  <Smiles>  (69) 
C([C@]1(C(N(c2c(nc(c3c(c(c(c(c23)[H])[H])[H])[H])[H])[H])C(=O)[C@]21C(N(C(C#N)([H])[H])C(=O)c1c(c(c(F)c(c21)[H])[H])[H])([H])[H])([H])[H])[H])([H])([H])[H]

>  <h>  (69) 
<NA>

>  <Training>  (69) 
True

>  <Success>  (69) 
True

>  <enamine_searched>  (69) 
False

>  <enamine_id>  (69) 
nan

$$$$

     RDKit          3D

 41 44  0  0  0  0  0  0  0  0999 V2000
   -5.5028   -2.9697  -21.4787 O   0  0  0  0  0  0  0  0  0  0  0  0
   -6.5730   -2.5831  -21.9148 C   0  0  0  0  0  0  0  0  0  0  0  0
   -7.3653   -1.4539  -21.2598 C   0  0  0  0  0  0  0  0  0  0  0  0
   -6.6132   -0.7840  -20.1640 C   0  0  0  0  0  0  0  0  0  0  0  0
   -6.8926   -1.0693  -18.8559 C   0  0  0  0  0  0  0  0  0  0  0  0
   -6.2167   -0.5834  -17.7843 N   0  0  0  0  0  0  0  0  0  0  0  0
   -5.2027    0.2096  -18.0412 C   0  0  0  0  0  0  0  0  0  0  0  0
   -4.7953    0.5828  -19.3518 C   0  0  0  0  0  0  0  0  0  0  0  0
   -3.6553    1.3923  -19.5812 C   0  0  0  0  0  0  0  0  0  0  0  0
   -3.3178    1.7767  -20.8497 C   0  0  0  0  0  0  0  0  0  0  0  0
   -4.1131    1.3832  -21.9450 C   0  0  0  0  0  0  0  0  0  0  0  0
   -5.2007    0.5577  -21.7569 C   0  0  0  0  0  0  0  0  0  0  0  0
   -5.5465    0.1146  -20.4505 C   0  0  0  0  0  0  0  0  0  0  0  0
   -5.7706    0.2151  -22.6160 H   0  0  0  0  0  0  0  0  0  0  0  0
   -3.8537    1.7187  -22.9449 H   0  0  0  0  0  0  0  0  0  0  0  0
   -2.4387    2.3942  -21.0196 H   0  0  0  0  0  0  0  0  0  0  0  0
   -3.0807    1.7194  -18.7222 H   0  0  0  0  0  0  0  0  0  0  0  0
   -4.6401    0.5887  -17.1867 H   0  0  0  0  0  0  0  0  0  0  0  0
   -7.7222   -1.7347  -18.6156 H   0  0  0  0  0  0  0  0  0  0  0  0
   -7.6201   -0.7348  -22.0460 H   0  0  0  0  0  0  0  0  0  0  0  0
   -8.3001   -1.8922  -20.8756 H   0  0  0  0  0  0  0  0  0  0  0  0
   -7.1568   -3.1152  -23.0378 N   0  0  0  0  0  0  0  0  0  0  0  0
   -8.5622   -2.9218  -23.3850 C   0  0  0  0  0  0  0  0  0  0  0  0
   -9.4815   -3.9872  -22.7873 C   0  0  0  0  0  0  0  0  0  0  0  0
   -9.1779   -5.3856  -23.3566 C   0  0  0  0  0  0  0  0  0  0  0  0
   -7.9537   -6.0416  -22.7636 C   0  0  0  0  0  0  0  0  0  0  0  0
   -7.9447   -7.5541  -21.9196 S   0  0  0  0  0  0  0  0  0  0  0  0
   -6.2240   -7.5345  -21.7961 C   0  0  0  0  0  0  0  0  0  0  0  0
   -5.6864   -6.4302  -22.3767 C   0  0  0  0  0  0  0  0  0  0  0  0
   -6.6884   -5.5612  -22.9171 C   0  0  0  0  0  0  0  0  0  0  0  0
   -6.4749   -4.2533  -23.6460 C   0  0  0  0  0  0  0  0  0  0  0  0
   -5.4167   -3.9992  -23.7234 H   0  0  0  0  0  0  0  0  0  0  0  0
   -6.8646   -4.3264  -24.6649 H   0  0  0  0  0  0  0  0  0  0  0  0
   -4.6173   -6.2364  -22.4304 H   0  0  0  0  0  0  0  0  0  0  0  0
   -5.6691   -8.3449  -21.3386 H   0  0  0  0  0  0  0  0  0  0  0  0
   -8.9805   -5.2637  -24.4338 H   0  0  0  0  0  0  0  0  0  0  0  0
  -10.0429   -6.0346  -23.3074 H   0  0  0  0  0  0  0  0  0  0  0  0
  -10.5213   -3.7264  -23.0137 H   0  0  0  0  0  0  0  0  0  0  0  0
   -9.4030   -3.9879  -21.6949 H   0  0  0  0  0  0  0  0  0  0  0  0
   -8.6347   -2.9740  -24.4793 H   0  0  0  0  0  0  0  0  0  0  0  0
   -8.8874   -1.9130  -23.0978 H   0  0  0  0  0  0  0  0  0  0  0  0
  1  2  2  0
  2  3  1  0
  3  4  1  0
  4  5  2  0
  5  6  1  0
  6  7  2  0
  7  8  1  0
  8  9  2  0
  9 10  1  0
 10 11  2  0
 11 12  1  0
 12 13  2  0
 12 14  1  0
 11 15  1  0
 10 16  1  0
  9 17  1  0
  7 18  1  0
  5 19  1  0
  3 20  1  0
  3 21  1  0
  2 22  1  0
 22 23  1  0
 23 24  1  0
 24 25  1  0
 25 26  1  0
 26 27  1  0
 27 28  1  0
 28 29  2  0
 29 30  1  0
 30 31  1  0
 31 32  1  0
 31 33  1  0
 29 34  1  0
 28 35  1  0
 25 36  1  0
 25 37  1  0
 24 38  1  0
 24 39  1  0
 23 40  1  0
 23 41  1  0
 13  4  1  0
 31 22  1  0
 13  8  1  0
 30 26  2  0
M  END
>  <cnnaffinities>  (70) 
[4.514, 4.78657]

>  <score>  (70) 
4.514

>  <index>  (70) 
72

>  <Smiles>  (70) 
O=C(C(c1c(nc(c2c(c(c(c(c12)[H])[H])[H])[H])[H])[H])([H])[H])N1C(C(C(c2sc(c(c2C1([H])[H])[H])[H])([H])[H])([H])[H])([H])[H]

>  <h>  (70) 
<NA>

>  <Training>  (70) 
True

>  <Success>  (70) 
True

>  <enamine_searched>  (70) 
False

>  <enamine_id>  (70) 
nan

$$$$

     RDKit          3D

 50 53  0  0  0  0  0  0  0  0999 V2000
   -5.5970   -3.0168  -21.5777 O   0  0  0  0  0  0  0  0  0  0  0  0
   -6.7547   -2.7532  -21.8572 C   0  0  0  0  0  0  0  0  0  0  0  0
   -7.4144   -1.4794  -21.2677 C   0  0  0  0  0  0  0  0  0  0  0  0
   -6.5792   -0.8324  -20.1820 C   0  0  0  0  0  0  0  0  0  0  0  0
   -6.8730   -1.0479  -18.8624 C   0  0  0  0  0  0  0  0  0  0  0  0
   -6.1897   -0.5433  -17.7999 N   0  0  0  0  0  0  0  0  0  0  0  0
   -5.1573    0.2207  -18.0634 C   0  0  0  0  0  0  0  0  0  0  0  0
   -4.7224    0.5334  -19.3771 C   0  0  0  0  0  0  0  0  0  0  0  0
   -3.5928    1.3597  -19.6152 C   0  0  0  0  0  0  0  0  0  0  0  0
   -3.2137    1.6727  -20.8921 C   0  0  0  0  0  0  0  0  0  0  0  0
   -3.9799    1.2069  -21.9807 C   0  0  0  0  0  0  0  0  0  0  0  0
   -5.0657    0.3815  -21.7777 C   0  0  0  0  0  0  0  0  0  0  0  0
   -5.4617    0.0107  -20.4703 C   0  0  0  0  0  0  0  0  0  0  0  0
   -5.5371   -0.1065  -22.6256 H   0  0  0  0  0  0  0  0  0  0  0  0
   -3.5983    1.3524  -22.9879 H   0  0  0  0  0  0  0  0  0  0  0  0
   -2.3220    2.2710  -21.0816 H   0  0  0  0  0  0  0  0  0  0  0  0
   -3.0532    1.7672  -18.7613 H   0  0  0  0  0  0  0  0  0  0  0  0
   -4.6031    0.6285  -17.2139 H   0  0  0  0  0  0  0  0  0  0  0  0
   -7.7216   -1.6715  -18.5845 H   0  0  0  0  0  0  0  0  0  0  0  0
   -7.6153   -0.7507  -22.0665 H   0  0  0  0  0  0  0  0  0  0  0  0
   -8.3961   -1.7489  -20.8491 H   0  0  0  0  0  0  0  0  0  0  0  0
   -7.5173   -3.5823  -22.6631 N   0  0  0  0  0  0  0  0  0  0  0  0
   -8.6634   -3.1251  -23.4519 C   0  0  0  0  0  0  0  0  0  0  0  0
   -9.7355   -4.2013  -23.5631 C   0  0  0  0  0  0  0  0  0  0  0  0
   -9.1631   -5.5031  -24.1046 C   0  0  0  0  0  0  0  0  0  0  0  0
   -7.9857   -5.9376  -23.2408 C   0  0  0  0  0  0  0  0  0  0  0  0
   -6.9114   -4.8540  -23.1003 C   0  0  1  0  0  0  0  0  0  0  0  0
   -6.0436   -4.6963  -24.3701 C   0  0  0  0  0  0  0  0  0  0  0  0
   -5.2089   -5.9204  -24.6873 C   0  0  0  0  0  0  0  0  0  0  0  0
   -4.0474   -6.1888  -23.9576 C   0  0  0  0  0  0  0  0  0  0  0  0
   -3.2844   -7.3205  -24.2201 C   0  0  0  0  0  0  0  0  0  0  0  0
   -3.6709   -8.2110  -25.2177 C   0  0  0  0  0  0  0  0  0  0  0  0
   -4.8277   -7.9602  -25.9499 C   0  0  0  0  0  0  0  0  0  0  0  0
   -5.5861   -6.8241  -25.6833 C   0  0  0  0  0  0  0  0  0  0  0  0
   -6.4952   -6.6406  -26.2537 H   0  0  0  0  0  0  0  0  0  0  0  0
   -5.1412   -8.6464  -26.7323 H   0  0  0  0  0  0  0  0  0  0  0  0
   -3.0714   -9.0926  -25.4258 H   0  0  0  0  0  0  0  0  0  0  0  0
   -2.3826   -7.5098  -23.6435 H   0  0  0  0  0  0  0  0  0  0  0  0
   -3.7426   -5.4993  -23.1729 H   0  0  0  0  0  0  0  0  0  0  0  0
   -6.6864   -4.4569  -25.2258 H   0  0  0  0  0  0  0  0  0  0  0  0
   -5.3814   -3.8372  -24.2158 H   0  0  0  0  0  0  0  0  0  0  0  0
   -6.2383   -5.1545  -22.2957 H   0  0  0  0  0  0  0  0  0  0  0  0
   -8.3528   -6.1939  -22.2419 H   0  0  0  0  0  0  0  0  0  0  0  0
   -7.5380   -6.8542  -23.6383 H   0  0  0  0  0  0  0  0  0  0  0  0
   -9.9338   -6.2835  -24.1226 H   0  0  0  0  0  0  0  0  0  0  0  0
   -8.8391   -5.3755  -25.1464 H   0  0  0  0  0  0  0  0  0  0  0  0
  -10.1669   -4.3776  -22.5733 H   0  0  0  0  0  0  0  0  0  0  0  0
  -10.5521   -3.8477  -24.2007 H   0  0  0  0  0  0  0  0  0  0  0  0
   -9.0862   -2.2315  -22.9905 H   0  0  0  0  0  0  0  0  0  0  0  0
   -8.3533   -2.8305  -24.4667 H   0  0  0  0  0  0  0  0  0  0  0  0
  1  2  2  0
  2  3  1  0
  3  4  1  0
  4  5  2  0
  5  6  1  0
  6  7  2  0
  7  8  1  0
  8  9  2  0
  9 10  1  0
 10 11  2  0
 11 12  1  0
 12 13  2  0
 12 14  1  0
 11 15  1  0
 10 16  1  0
  9 17  1  0
  7 18  1  0
  5 19  1  0
  3 20  1  0
  3 21  1  0
  2 22  1  0
 22 23  1  0
 23 24  1  0
 24 25  1  0
 25 26  1  0
 26 27  1  0
 27 28  1  0
 28 29  1  0
 29 30  2  0
 30 31  1  0
 31 32  2  0
 32 33  1  0
 33 34  2  0
 34 35  1  0
 33 36  1  0
 32 37  1  0
 31 38  1  0
 30 39  1  0
 28 40  1  0
 28 41  1  0
 27 42  1  1
 26 43  1  0
 26 44  1  0
 25 45  1  0
 25 46  1  0
 24 47  1  0
 24 48  1  0
 23 49  1  0
 23 50  1  0
 13  4  1  0
 27 22  1  0
 34 29  1  0
 13  8  1  0
M  END
>  <cnnaffinities>  (71) 
[5.50667, 5.23327]

>  <score>  (71) 
5.50667

>  <index>  (71) 
73

>  <Smiles>  (71) 
O=C(C(c1c(nc(c2c(c(c(c(c12)[H])[H])[H])[H])[H])[H])([H])[H])N1C(C(C(C([C@]1(C(c1c(c(c(c(c1[H])[H])[H])[H])[H])([H])[H])[H])([H])[H])([H])[H])([H])[H])([H])[H]

>  <h>  (71) 
<NA>

>  <Training>  (71) 
True

>  <Success>  (71) 
True

>  <enamine_searched>  (71) 
False

>  <enamine_id>  (71) 
nan

$$$$

     RDKit          3D

 43 47  0  0  0  0  0  0  0  0999 V2000
   -9.4149   -0.4343  -20.9946 O   0  0  0  0  0  0  0  0  0  0  0  0
   -8.7410   -1.3607  -21.3830 C   0  0  0  0  0  0  0  0  0  0  0  0
   -9.1345   -2.4456  -22.1157 N   0  0  0  0  0  0  0  0  0  0  0  0
   -8.0374   -3.1467  -22.7373 C   0  0  1  0  0  0  0  0  0  0  0  0
   -8.1052   -4.6893  -22.7141 C   0  0  0  0  0  0  0  0  0  0  0  0
   -8.2237   -4.7223  -24.2734 C   0  0  2  0  0  0  0  0  0  0  0  0
   -7.1779   -5.5235  -24.9868 C   0  0  0  0  0  0  0  0  0  0  0  0
   -5.8218   -5.2783  -24.7416 C   0  0  0  0  0  0  0  0  0  0  0  0
   -4.8303   -6.0108  -25.3847 C   0  0  0  0  0  0  0  0  0  0  0  0
   -5.1794   -7.0130  -26.2894 C   0  0  0  0  0  0  0  0  0  0  0  0
   -6.5195   -7.2768  -26.5444 C   0  0  0  0  0  0  0  0  0  0  0  0
   -7.4986   -6.5353  -25.8934 C   0  0  0  0  0  0  0  0  0  0  0  0
   -9.1668   -6.9192  -26.2489 Cl  0  0  0  0  0  0  0  0  0  0  0  0
   -6.8255   -8.0484  -27.2449 H   0  0  0  0  0  0  0  0  0  0  0  0
   -4.4091   -7.5881  -26.7972 H   0  0  0  0  0  0  0  0  0  0  0  0
   -3.7852   -5.7950  -25.1783 H   0  0  0  0  0  0  0  0  0  0  0  0
   -5.5511   -4.4959  -24.0290 H   0  0  0  0  0  0  0  0  0  0  0  0
   -8.0325   -3.1702  -24.2946 C   0  0  0  0  0  0  0  0  0  0  0  0
   -8.8528   -2.6037  -24.7490 H   0  0  0  0  0  0  0  0  0  0  0  0
   -7.0969   -2.8303  -24.7562 H   0  0  0  0  0  0  0  0  0  0  0  0
   -9.2223   -5.0215  -24.6051 H   0  0  0  0  0  0  0  0  0  0  0  0
   -8.9690   -5.0735  -22.1637 H   0  0  0  0  0  0  0  0  0  0  0  0
   -7.1944   -5.1547  -22.3192 H   0  0  0  0  0  0  0  0  0  0  0  0
   -6.8391   -2.5139  -22.0492 C   0  0  0  0  0  0  0  0  0  0  0  0
   -5.6735   -2.7984  -22.2174 O   0  0  0  0  0  0  0  0  0  0  0  0
   -7.3395   -1.5109  -21.2089 N   0  0  0  0  0  0  0  0  0  0  0  0
   -6.5885   -0.8519  -20.1860 C   0  0  0  0  0  0  0  0  0  0  0  0
   -6.9098   -1.0640  -18.8666 C   0  0  0  0  0  0  0  0  0  0  0  0
   -6.2165   -0.5503  -17.8210 N   0  0  0  0  0  0  0  0  0  0  0  0
   -5.1811    0.2040  -18.0937 C   0  0  0  0  0  0  0  0  0  0  0  0
   -4.7562    0.5368  -19.4079 C   0  0  0  0  0  0  0  0  0  0  0  0
   -3.6277    1.3709  -19.6297 C   0  0  0  0  0  0  0  0  0  0  0  0
   -3.2617    1.7104  -20.9015 C   0  0  0  0  0  0  0  0  0  0  0  0
   -4.0280    1.2512  -21.9945 C   0  0  0  0  0  0  0  0  0  0  0  0
   -5.1145    0.4269  -21.8062 C   0  0  0  0  0  0  0  0  0  0  0  0
   -5.4969    0.0274  -20.4961 C   0  0  0  0  0  0  0  0  0  0  0  0
   -5.6347    0.0041  -22.6612 H   0  0  0  0  0  0  0  0  0  0  0  0
   -3.6933    1.4763  -23.0024 H   0  0  0  0  0  0  0  0  0  0  0  0
   -2.3735    2.3109  -21.0814 H   0  0  0  0  0  0  0  0  0  0  0  0
   -3.0796    1.7373  -18.7669 H   0  0  0  0  0  0  0  0  0  0  0  0
   -4.6298    0.6060  -17.2464 H   0  0  0  0  0  0  0  0  0  0  0  0
   -7.7586   -1.6892  -18.5997 H   0  0  0  0  0  0  0  0  0  0  0  0
  -10.0987   -2.6030  -22.3631 H   0  0  0  0  0  0  0  0  0  0  0  0
  1  2  2  0
  2  3  1  0
  4  3  1  6
  4  5  1  0
  5  6  1  0
  6  7  1  0
  7  8  2  0
  8  9  1  0
  9 10  2  0
 10 11  1  0
 11 12  2  0
 12 13  1  0
 11 14  1  0
 10 15  1  0
  9 16  1  0
  8 17  1  0
  6 18  1  0
 18 19  1  0
 18 20  1  0
  6 21  1  1
  5 22  1  0
  5 23  1  0
  4 24  1  0
 24 25  2  0
 24 26  1  0
 26 27  1  0
 27 28  2  0
 28 29  1  0
 29 30  2  0
 30 31  1  0
 31 32  2  0
 32 33  1  0
 33 34  2  0
 34 35  1  0
 35 36  2  0
 35 37  1  0
 34 38  1  0
 33 39  1  0
 32 40  1  0
 30 41  1  0
 28 42  1  0
  3 43  1  0
 26  2  1  0
 36 27  1  0
 18  4  1  0
 36 31  1  0
 12  7  1  0
M  END
>  <cnnaffinities>  (72) 
[5.62978]

>  <score>  (72) 
5.62978

>  <index>  (72) 
74

>  <Smiles>  (72) 
O=C1N([C@]2(C([C@](c3c(c(c(c(c3Cl)[H])[H])[H])[H])(C2([H])[H])[H])([H])[H])C(=O)N1c1c(nc(c2c(c(c(c(c12)[H])[H])[H])[H])[H])[H])[H]

>  <h>  (72) 
<NA>

>  <Training>  (72) 
True

>  <Success>  (72) 
True

>  <enamine_searched>  (72) 
False

>  <enamine_id>  (72) 
nan

$$$$

     RDKit          3D

 66 71  0  0  0  0  0  0  0  0999 V2000
   -7.4189    3.3991  -21.8957 C   0  0  0  0  0  0  0  0  0  0  0  0
   -8.3518    2.9154  -22.9074 N   0  0  0  0  0  0  0  0  0  0  0  0
   -7.8037    2.1741  -23.9217 C   0  0  0  0  0  0  0  0  0  0  0  0
   -6.5980    2.0108  -24.0484 O   0  0  0  0  0  0  0  0  0  0  0  0
   -8.7940    1.5534  -24.9045 C   0  0  0  0  0  0  0  0  0  0  0  0
   -9.4464    0.4049  -24.3103 N   0  0  0  0  0  0  0  0  0  0  0  0
   -8.6911   -0.8305  -24.1604 C   0  0  0  0  0  0  0  0  0  0  0  0
   -9.0642   -1.5678  -22.8513 C   0  0  2  0  0  0  0  0  0  0  0  0
   -8.5461   -0.7762  -21.6299 C   0  0  0  0  0  0  0  0  0  0  0  0
   -9.0375    0.2145  -21.1274 O   0  0  0  0  0  0  0  0  0  0  0  0
   -7.3918   -1.3752  -21.1915 N   0  0  0  0  0  0  0  0  0  0  0  0
   -6.6162   -0.7843  -20.1676 C   0  0  0  0  0  0  0  0  0  0  0  0
   -6.9237   -1.0423  -18.8585 C   0  0  0  0  0  0  0  0  0  0  0  0
   -6.2251   -0.5664  -17.7997 N   0  0  0  0  0  0  0  0  0  0  0  0
   -5.1997    0.2101  -18.0585 C   0  0  0  0  0  0  0  0  0  0  0  0
   -4.7859    0.5768  -19.3720 C   0  0  0  0  0  0  0  0  0  0  0  0
   -3.6493    1.3946  -19.6087 C   0  0  0  0  0  0  0  0  0  0  0  0
   -3.3054    1.7547  -20.8830 C   0  0  0  0  0  0  0  0  0  0  0  0
   -4.0864    1.3374  -21.9809 C   0  0  0  0  0  0  0  0  0  0  0  0
   -5.1706    0.5121  -21.7854 C   0  0  0  0  0  0  0  0  0  0  0  0
   -5.5289    0.0887  -20.4733 C   0  0  0  0  0  0  0  0  0  0  0  0
   -5.7613    0.1978  -22.6415 H   0  0  0  0  0  0  0  0  0  0  0  0
   -3.8313    1.6625  -22.9871 H   0  0  0  0  0  0  0  0  0  0  0  0
   -2.4272    2.3710  -21.0544 H   0  0  0  0  0  0  0  0  0  0  0  0
   -3.0741    1.7288  -18.7505 H   0  0  0  0  0  0  0  0  0  0  0  0
   -4.6209    0.5771  -17.2090 H   0  0  0  0  0  0  0  0  0  0  0  0
   -7.7797   -1.6739  -18.6308 H   0  0  0  0  0  0  0  0  0  0  0  0
   -7.0083   -2.5574  -21.9302 C   0  0  0  0  0  0  0  0  0  0  0  0
   -8.2927   -2.9158  -22.6998 C   0  0  2  0  0  0  0  0  0  0  0  0
   -8.0100   -3.7180  -23.9852 C   0  0  0  0  0  0  0  0  0  0  0  0
   -7.5004   -5.0539  -23.7498 N   0  0  0  0  0  0  0  0  0  0  0  0
   -6.1949   -5.3849  -23.4865 C   0  0  0  0  0  0  0  0  0  0  0  0
   -5.0783   -4.6095  -23.8896 C   0  0  0  0  0  0  0  0  0  0  0  0
   -3.8302   -4.9625  -23.6132 N   0  0  0  0  0  0  0  0  0  0  0  0
   -3.6637   -6.1040  -22.9415 C   0  0  0  0  0  0  0  0  0  0  0  0
   -4.7485   -6.8763  -22.5621 C   0  0  0  0  0  0  0  0  0  0  0  0
   -6.0053   -6.5346  -22.8370 N   0  0  0  0  0  0  0  0  0  0  0  0
   -4.6210   -7.8047  -22.0060 H   0  0  0  0  0  0  0  0  0  0  0  0
   -2.6455   -6.4077  -22.7091 H   0  0  0  0  0  0  0  0  0  0  0  0
   -5.2120   -3.6849  -24.4483 H   0  0  0  0  0  0  0  0  0  0  0  0
   -8.1499   -5.7540  -23.4133 H   0  0  0  0  0  0  0  0  0  0  0  0
   -7.2729   -3.1842  -24.5919 H   0  0  0  0  0  0  0  0  0  0  0  0
   -8.9145   -3.8040  -24.6014 H   0  0  0  0  0  0  0  0  0  0  0  0
   -8.8895   -3.5613  -22.0494 H   0  0  0  0  0  0  0  0  0  0  0  0
   -6.6883   -3.3496  -21.2474 H   0  0  0  0  0  0  0  0  0  0  0  0
   -6.1685   -2.3491  -22.6139 H   0  0  0  0  0  0  0  0  0  0  0  0
  -10.5735   -1.6512  -22.7826 C   0  0  0  0  0  0  0  0  0  0  0  0
  -11.1903   -2.5774  -21.9410 C   0  0  0  0  0  0  0  0  0  0  0  0
  -12.5662   -2.5926  -21.8194 C   0  0  0  0  0  0  0  0  0  0  0  0
  -13.2803   -3.7035  -20.6922 Cl  0  0  0  0  0  0  0  0  0  0  0  0
  -13.3850   -1.7169  -22.5308 C   0  0  0  0  0  0  0  0  0  0  0  0
  -12.7786   -0.7708  -23.3280 C   0  0  0  0  0  0  0  0  0  0  0  0
  -11.3920   -0.7179  -23.4307 C   0  0  0  0  0  0  0  0  0  0  0  0
  -10.8085    0.4178  -24.2042 C   0  0  0  0  0  0  0  0  0  0  0  0
  -11.4995    1.3103  -24.6725 O   0  0  0  0  0  0  0  0  0  0  0  0
  -13.3521   -0.0389  -23.8826 H   0  0  0  0  0  0  0  0  0  0  0  0
  -14.4642   -1.7830  -22.4433 H   0  0  0  0  0  0  0  0  0  0  0  0
  -10.6151   -3.2904  -21.3630 H   0  0  0  0  0  0  0  0  0  0  0  0
   -8.9093   -1.4974  -25.0047 H   0  0  0  0  0  0  0  0  0  0  0  0
   -7.6210   -0.5927  -24.1869 H   0  0  0  0  0  0  0  0  0  0  0  0
   -8.2404    1.2531  -25.8014 H   0  0  0  0  0  0  0  0  0  0  0  0
   -9.5778    2.2653  -25.1844 H   0  0  0  0  0  0  0  0  0  0  0  0
   -9.2821    2.6729  -22.5883 H   0  0  0  0  0  0  0  0  0  0  0  0
   -6.9200    2.5541  -21.3901 H   0  0  0  0  0  0  0  0  0  0  0  0
   -6.6570    4.0071  -22.3885 H   0  0  0  0  0  0  0  0  0  0  0  0
   -7.9308    4.0347  -21.1674 H   0  0  0  0  0  0  0  0  0  0  0  0
  1  2  1  0
  2  3  1  0
  3  4  2  0
  3  5  1  0
  5  6  1  0
  6  7  1  0
  8  7  1  6
  8  9  1  0
  9 10  2  0
  9 11  1  0
 11 12  1  0
 12 13  2  0
 13 14  1  0
 14 15  2  0
 15 16  1  0
 16 17  2  0
 17 18  1  0
 18 19  2  0
 19 20  1  0
 20 21  2  0
 20 22  1  0
 19 23  1  0
 18 24  1  0
 17 25  1  0
 15 26  1  0
 13 27  1  0
 11 28  1  0
 28 29  1  0
 29 30  1  0
 30 31  1  0
 31 32  1  0
 32 33  2  0
 33 34  1  0
 34 35  2  0
 35 36  1  0
 36 37  2  0
 36 38  1  0
 35 39  1  0
 33 40  1  0
 31 41  1  0
 30 42  1  0
 30 43  1  0
 29 44  1  1
 28 45  1  0
 28 46  1  0
  8 47  1  0
 47 48  2  0
 48 49  1  0
 49 50  1  0
 49 51  2  0
 51 52  1  0
 52 53  2  0
 53 54  1  0
 54 55  2  0
 52 56  1  0
 51 57  1  0
 48 58  1  0
  7 59  1  0
  7 60  1  0
  5 61  1  0
  5 62  1  0
  2 63  1  0
  1 64  1  0
  1 65  1  0
  1 66  1  0
 54  6  1  0
 29  8  1  0
 37 32  1  0
 53 47  1  0
 21 12  1  0
 21 16  1  0
M  END
>  <cnnaffinities>  (73) 
[6.6312, 6.59951]

>  <score>  (73) 
6.6312

>  <index>  (73) 
75

>  <Smiles>  (73) 
C(N(C(=O)C(N1C([C@@]2(C(=O)N(c3c(nc(c4c(c(c(c(c34)[H])[H])[H])[H])[H])[H])C([C@@]2(C(N(c2c(nc(c(n2)[H])[H])[H])[H])([H])[H])[H])([H])[H])c2c(c(Cl)c(c(c2C1=O)[H])[H])[H])([H])[H])([H])[H])[H])([H])([H])[H]

>  <h>  (73) 
<NA>

>  <Training>  (73) 
True

>  <Success>  (73) 
True

>  <enamine_searched>  (73) 
False

>  <enamine_id>  (73) 
nan

$$$$

     RDKit          3D

 66 71  0  0  0  0  0  0  0  0999 V2000
   -8.1176   -3.8168  -23.9103 C   0  0  0  0  0  0  0  0  0  0  0  0
   -8.3438   -3.0224  -22.6193 C   0  0  1  0  0  0  0  0  0  0  0  0
   -7.0255   -2.5960  -21.9359 C   0  0  0  0  0  0  0  0  0  0  0  0
   -7.3977   -1.4071  -21.1883 N   0  0  0  0  0  0  0  0  0  0  0  0
   -6.6126   -0.8046  -20.1679 C   0  0  0  0  0  0  0  0  0  0  0  0
   -6.9101   -1.0471  -18.8514 C   0  0  0  0  0  0  0  0  0  0  0  0
   -6.2017   -0.5557  -17.8052 N   0  0  0  0  0  0  0  0  0  0  0  0
   -5.1698    0.2061  -18.0760 C   0  0  0  0  0  0  0  0  0  0  0  0
   -4.7506    0.5507  -19.3923 C   0  0  0  0  0  0  0  0  0  0  0  0
   -3.6239    1.3846  -19.6269 C   0  0  0  0  0  0  0  0  0  0  0  0
   -3.2620    1.7195  -20.9022 C   0  0  0  0  0  0  0  0  0  0  0  0
   -4.0242    1.2576  -21.9948 C   0  0  0  0  0  0  0  0  0  0  0  0
   -5.1116    0.4322  -21.7942 C   0  0  0  0  0  0  0  0  0  0  0  0
   -5.5060    0.0520  -20.4819 C   0  0  0  0  0  0  0  0  0  0  0  0
   -5.6158   -0.0068  -22.6504 H   0  0  0  0  0  0  0  0  0  0  0  0
   -3.6895    1.4710  -23.0082 H   0  0  0  0  0  0  0  0  0  0  0  0
   -2.3725    2.3173  -21.0887 H   0  0  0  0  0  0  0  0  0  0  0  0
   -3.0724    1.7558  -18.7669 H   0  0  0  0  0  0  0  0  0  0  0  0
   -4.6187    0.6105  -17.2263 H   0  0  0  0  0  0  0  0  0  0  0  0
   -7.7599   -1.6746  -18.5908 H   0  0  0  0  0  0  0  0  0  0  0  0
   -8.6271   -0.8961  -21.5313 C   0  0  0  0  0  0  0  0  0  0  0  0
   -9.1519    0.0541  -20.9765 O   0  0  0  0  0  0  0  0  0  0  0  0
   -9.1740   -1.7056  -22.7359 C   0  0  1  0  0  0  0  0  0  0  0  0
   -8.8581   -0.9605  -24.0603 C   0  0  0  0  0  0  0  0  0  0  0  0
   -9.5716    0.2948  -24.1591 N   0  0  0  0  0  0  0  0  0  0  0  0
   -8.8510    1.5072  -24.4997 C   0  0  0  0  0  0  0  0  0  0  0  0
   -8.2693    2.1724  -23.2495 C   0  0  0  0  0  0  0  0  0  0  0  0
   -7.5924    3.4813  -23.5154 N   0  0  0  0  0  4  0  0  0  0  0  0
   -6.3350    3.3635  -24.3588 C   0  0  0  0  0  0  0  0  0  0  0  0
   -5.6259    4.7092  -24.4586 C   0  0  0  0  0  0  0  0  0  0  0  0
   -5.3269    5.2553  -23.1920 O   0  0  0  0  0  0  0  0  0  0  0  0
   -6.5108    5.4718  -22.4539 C   0  0  0  0  0  0  0  0  0  0  0  0
   -7.2685    4.1752  -22.2141 C   0  0  0  0  0  0  0  0  0  0  0  0
   -8.2064    4.3662  -21.6835 H   0  0  0  0  0  0  0  0  0  0  0  0
   -6.6541    3.4925  -21.6150 H   0  0  0  0  0  0  0  0  0  0  0  0
   -7.1658    6.1799  -22.9885 H   0  0  0  0  0  0  0  0  0  0  0  0
   -6.2061    5.9170  -21.5028 H   0  0  0  0  0  0  0  0  0  0  0  0
   -4.6689    4.6043  -24.9778 H   0  0  0  0  0  0  0  0  0  0  0  0
   -6.2606    5.4107  -25.0264 H   0  0  0  0  0  0  0  0  0  0  0  0
   -5.6700    2.6265  -23.8956 H   0  0  0  0  0  0  0  0  0  0  0  0
   -6.6079    3.0158  -25.3570 H   0  0  0  0  0  0  0  0  0  0  0  0
   -8.2830    4.0779  -24.0218 H   0  0  0  0  0  0  0  0  0  0  0  0
   -9.0624    2.3432  -22.5128 H   0  0  0  0  0  0  0  0  0  0  0  0
   -7.5371    1.4975  -22.7892 H   0  0  0  0  0  0  0  0  0  0  0  0
   -9.5610    2.1652  -25.0061 H   0  0  0  0  0  0  0  0  0  0  0  0
   -8.0522    1.2286  -25.1967 H   0  0  0  0  0  0  0  0  0  0  0  0
  -10.9074    0.3659  -23.9065 C   0  0  0  0  0  0  0  0  0  0  0  0
  -11.5888    1.3412  -24.2044 O   0  0  0  0  0  0  0  0  0  0  0  0
  -11.4945   -0.8298  -23.2136 C   0  0  0  0  0  0  0  0  0  0  0  0
  -12.8802   -0.8793  -23.0961 C   0  0  0  0  0  0  0  0  0  0  0  0
  -13.4755   -1.8928  -22.3786 C   0  0  0  0  0  0  0  0  0  0  0  0
  -12.6736   -2.8390  -21.7449 C   0  0  0  0  0  0  0  0  0  0  0  0
  -13.4326   -3.9528  -20.6460 Cl  0  0  0  0  0  0  0  0  0  0  0  0
  -11.2988   -2.8405  -21.8986 C   0  0  0  0  0  0  0  0  0  0  0  0
  -10.6835   -1.8306  -22.6507 C   0  0  0  0  0  0  0  0  0  0  0  0
  -10.7226   -3.6042  -21.3879 H   0  0  0  0  0  0  0  0  0  0  0  0
  -14.5507   -1.9489  -22.2725 H   0  0  0  0  0  0  0  0  0  0  0  0
  -13.4613   -0.0877  -23.5569 H   0  0  0  0  0  0  0  0  0  0  0  0
   -7.7890   -0.7359  -24.1182 H   0  0  0  0  0  0  0  0  0  0  0  0
   -9.1356   -1.6232  -24.8967 H   0  0  0  0  0  0  0  0  0  0  0  0
   -6.2443   -2.3786  -22.6818 H   0  0  0  0  0  0  0  0  0  0  0  0
   -6.6280   -3.3643  -21.2628 H   0  0  0  0  0  0  0  0  0  0  0  0
   -8.8821   -3.6562  -21.9085 H   0  0  0  0  0  0  0  0  0  0  0  0
   -7.6074   -4.7661  -23.7068 H   0  0  0  0  0  0  0  0  0  0  0  0
   -7.4884   -3.2573  -24.6146 H   0  0  0  0  0  0  0  0  0  0  0  0
   -9.0600   -4.0480  -24.4215 H   0  0  0  0  0  0  0  0  0  0  0  0
  1  2  1  0
  2  3  1  0
  3  4  1  0
  4  5  1  0
  5  6  2  0
  6  7  1  0
  7  8  2  0
  8  9  1  0
  9 10  2  0
 10 11  1  0
 11 12  2  0
 12 13  1  0
 13 14  2  0
 13 15  1  0
 12 16  1  0
 11 17  1  0
 10 18  1  0
  8 19  1  0
  6 20  1  0
  4 21  1  0
 21 22  2  0
 21 23  1  0
 23 24  1  6
 24 25  1  0
 25 26  1  0
 26 27  1  0
 27 28  1  0
 28 29  1  0
 29 30  1  0
 30 31  1  0
 31 32  1  0
 32 33  1  0
 33 34  1  0
 33 35  1  0
 32 36  1  0
 32 37  1  0
 30 38  1  0
 30 39  1  0
 29 40  1  0
 29 41  1  0
 28 42  1  0
 27 43  1  0
 27 44  1  0
 26 45  1  0
 26 46  1  0
 25 47  1  0
 47 48  2  0
 47 49  1  0
 49 50  2  0
 50 51  1  0
 51 52  2  0
 52 53  1  0
 52 54  1  0
 54 55  2  0
 54 56  1  0
 51 57  1  0
 50 58  1  0
 24 59  1  0
 24 60  1  0
  3 61  1  0
  3 62  1  0
  2 63  1  1
  1 64  1  0
  1 65  1  0
  1 66  1  0
 23  2  1  0
 33 28  1  0
 55 49  1  0
 14  5  1  0
 55 23  1  0
 14  9  1  0
M  CHG  1  28   1
M  END
>  <cnnaffinities>  (74) 
[6.2367, 5.65412, 5.53927]

>  <score>  (74) 
6.2367

>  <index>  (74) 
76

>  <Smiles>  (74) 
C([C@]1(C(N(c2c(nc(c3c(c(c(c(c23)[H])[H])[H])[H])[H])[H])C(=O)[C@]21C(N(C(C([N+]1(C(C(OC(C1([H])[H])([H])[H])([H])[H])([H])[H])[H])([H])[H])([H])[H])C(=O)c1c(c(c(Cl)c(c21)[H])[H])[H])([H])[H])([H])[H])[H])([H])([H])[H]

>  <h>  (74) 
<NA>

>  <Training>  (74) 
True

>  <Success>  (74) 
True

>  <enamine_searched>  (74) 
False

>  <enamine_id>  (74) 
nan

$$$$

     RDKit          3D

 55 60  0  0  0  0  0  0  0  0999 V2000
   -8.2211   -4.0465  -23.7107 C   0  0  0  0  0  0  0  0  0  0  0  0
   -8.4771   -3.1803  -22.4792 C   0  0  1  0  0  0  0  0  0  0  0  0
   -7.1746   -2.4793  -22.0369 C   0  0  0  0  0  0  0  0  0  0  0  0
   -7.6468   -1.3531  -21.2583 N   0  0  0  0  0  0  0  0  0  0  0  0
   -6.9100   -0.7473  -20.2129 C   0  0  0  0  0  0  0  0  0  0  0  0
   -7.1850   -1.0648  -18.9080 C   0  0  0  0  0  0  0  0  0  0  0  0
   -6.4334   -0.6686  -17.8526 N   0  0  0  0  0  0  0  0  0  0  0  0
   -5.3876    0.0819  -18.0942 C   0  0  0  0  0  0  0  0  0  0  0  0
   -5.0155    0.5252  -19.3940 C   0  0  0  0  0  0  0  0  0  0  0  0
   -3.8851    1.3557  -19.6085 C   0  0  0  0  0  0  0  0  0  0  0  0
   -3.6027    1.8229  -20.8620 C   0  0  0  0  0  0  0  0  0  0  0  0
   -4.4353    1.4913  -21.9534 C   0  0  0  0  0  0  0  0  0  0  0  0
   -5.5198    0.6659  -21.7737 C   0  0  0  0  0  0  0  0  0  0  0  0
   -5.8206    0.1390  -20.4903 C   0  0  0  0  0  0  0  0  0  0  0  0
   -6.1582    0.4145  -22.6154 H   0  0  0  0  0  0  0  0  0  0  0  0
   -4.2079    1.8863  -22.9398 H   0  0  0  0  0  0  0  0  0  0  0  0
   -2.7438    2.4690  -21.0244 H   0  0  0  0  0  0  0  0  0  0  0  0
   -3.2640    1.6198  -18.7558 H   0  0  0  0  0  0  0  0  0  0  0  0
   -4.7845    0.3846  -17.2365 H   0  0  0  0  0  0  0  0  0  0  0  0
   -8.0396   -1.6959  -18.6754 H   0  0  0  0  0  0  0  0  0  0  0  0
   -8.9718   -1.0524  -21.4821 C   0  0  0  0  0  0  0  0  0  0  0  0
   -9.5634   -0.1393  -20.9529 O   0  0  0  0  0  0  0  0  0  0  0  0
   -9.5101   -2.0143  -22.5837 C   0  0  1  0  0  0  0  0  0  0  0  0
   -9.3820   -1.2430  -23.9167 C   0  0  0  0  0  0  0  0  0  0  0  0
  -10.2724   -0.0940  -23.9283 N   0  0  0  0  0  0  0  0  0  0  0  0
   -9.8299    1.1759  -24.4769 C   0  0  0  0  0  0  0  0  0  0  0  0
   -9.7902    1.1996  -25.9764 C   0  0  0  0  0  0  0  0  0  0  0  0
   -9.1534    0.3720  -26.8340 C   0  0  0  0  0  0  0  0  0  0  0  0
   -9.4630    0.7629  -28.1066 O   0  0  0  0  0  0  0  0  0  0  0  0
  -10.2885    1.8111  -27.9408 C   0  0  0  0  0  0  0  0  0  0  0  0
  -10.5198    2.1284  -26.7133 N   0  0  0  0  0  0  0  0  0  0  0  0
  -10.6538    2.2876  -28.8416 H   0  0  0  0  0  0  0  0  0  0  0  0
   -8.4641   -0.4566  -26.7412 H   0  0  0  0  0  0  0  0  0  0  0  0
  -10.5284    1.9565  -24.1657 H   0  0  0  0  0  0  0  0  0  0  0  0
   -8.8567    1.4130  -24.0223 H   0  0  0  0  0  0  0  0  0  0  0  0
  -11.6121   -0.2663  -23.7209 C   0  0  0  0  0  0  0  0  0  0  0  0
  -12.4529    0.4893  -24.1921 O   0  0  0  0  0  0  0  0  0  0  0  0
  -11.9576   -1.3822  -22.7909 C   0  0  0  0  0  0  0  0  0  0  0  0
  -13.2558   -1.3763  -22.2762 C   0  0  0  0  0  0  0  0  0  0  0  0
  -13.6399   -2.3283  -21.3549 C   0  0  0  0  0  0  0  0  0  0  0  0
  -12.7293   -3.3365  -21.0608 C   0  0  0  0  0  0  0  0  0  0  0  0
  -13.1053   -4.2511  -20.1510 F   0  0  0  0  0  0  0  0  0  0  0  0
  -11.4387   -3.3747  -21.5667 C   0  0  0  0  0  0  0  0  0  0  0  0
  -10.9909   -2.3229  -22.3778 C   0  0  0  0  0  0  0  0  0  0  0  0
  -10.7861   -4.1744  -21.2278 H   0  0  0  0  0  0  0  0  0  0  0  0
  -14.5961   -2.3006  -20.8399 H   0  0  0  0  0  0  0  0  0  0  0  0
  -13.9320   -0.5879  -22.5946 H   0  0  0  0  0  0  0  0  0  0  0  0
   -9.6059   -1.9327  -24.7407 H   0  0  0  0  0  0  0  0  0  0  0  0
   -8.3592   -0.8826  -24.0508 H   0  0  0  0  0  0  0  0  0  0  0  0
   -6.5182   -3.1121  -21.4313 H   0  0  0  0  0  0  0  0  0  0  0  0
   -6.5945   -2.1513  -22.9172 H   0  0  0  0  0  0  0  0  0  0  0  0
   -8.7829   -3.8299  -21.6493 H   0  0  0  0  0  0  0  0  0  0  0  0
   -9.1124   -4.5761  -24.0566 H   0  0  0  0  0  0  0  0  0  0  0  0
   -7.8465   -3.4405  -24.5441 H   0  0  0  0  0  0  0  0  0  0  0  0
   -7.4515   -4.7979  -23.4924 H   0  0  0  0  0  0  0  0  0  0  0  0
  1  2  1  0
  2  3  1  0
  3  4  1  0
  4  5  1  0
  5  6  2  0
  6  7  1  0
  7  8  2  0
  8  9  1  0
  9 10  2  0
 10 11  1  0
 11 12  2  0
 12 13  1  0
 13 14  2  0
 13 15  1  0
 12 16  1  0
 11 17  1  0
 10 18  1  0
  8 19  1  0
  6 20  1  0
  4 21  1  0
 21 22  2  0
 21 23  1  0
 23 24  1  6
 24 25  1  0
 25 26  1  0
 26 27  1  0
 27 28  2  0
 28 29  1  0
 29 30  1  0
 30 31  2  0
 30 32  1  0
 28 33  1  0
 26 34  1  0
 26 35  1  0
 25 36  1  0
 36 37  2  0
 36 38  1  0
 38 39  2  0
 39 40  1  0
 40 41  2  0
 41 42  1  0
 41 43  1  0
 43 44  2  0
 43 45  1  0
 40 46  1  0
 39 47  1  0
 24 48  1  0
 24 49  1  0
  3 50  1  0
  3 51  1  0
  2 52  1  1
  1 53  1  0
  1 54  1  0
  1 55  1  0
 23  2  1  0
 31 27  1  0
 44 38  1  0
 14  5  1  0
 44 23  1  0
 14  9  1  0
M  END
>  <cnnaffinities>  (75) 
[6.22912, 5.12166]

>  <score>  (75) 
6.22912

>  <index>  (75) 
77

>  <Smiles>  (75) 
C([C@]1(C(N(c2c(nc(c3c(c(c(c(c23)[H])[H])[H])[H])[H])[H])C(=O)[C@]21C(N(C(c1c(oc(n1)[H])[H])([H])[H])C(=O)c1c(c(c(F)c(c21)[H])[H])[H])([H])[H])([H])[H])[H])([H])([H])[H]

>  <h>  (75) 
<NA>

>  <Training>  (75) 
True

>  <Success>  (75) 
True

>  <enamine_searched>  (75) 
False

>  <enamine_id>  (75) 
nan

$$$$

     RDKit          3D

 56 60  0  0  0  0  0  0  0  0999 V2000
  -14.5896   -1.0615  -22.7770 C   0  0  0  0  0  0  0  0  0  0  0  0
  -13.4709   -1.9462  -22.5774 N   0  0  0  0  0  0  0  0  0  0  0  0
  -13.3097   -2.6261  -21.4124 C   0  0  0  0  0  0  0  0  0  0  0  0
  -13.9035   -2.3699  -20.3787 O   0  0  0  0  0  0  0  0  0  0  0  0
  -12.3626   -3.8079  -21.5284 C   0  0  0  0  0  0  0  0  0  0  0  0
  -11.1242   -3.6345  -22.2751 N   0  0  0  0  0  0  0  0  0  0  0  0
   -9.9482   -3.2021  -21.5299 C   0  0  0  0  0  0  0  0  0  0  0  0
   -8.7768   -2.7362  -22.4281 C   0  0  2  0  0  0  0  0  0  0  0  0
   -7.5711   -2.5094  -21.4957 C   0  0  0  0  0  0  0  0  0  0  0  0
   -6.8328   -3.3459  -21.0212 O   0  0  0  0  0  0  0  0  0  0  0  0
   -7.4220   -1.1552  -21.2636 N   0  0  0  0  0  0  0  0  0  0  0  0
   -6.6293   -0.6850  -20.1891 C   0  0  0  0  0  0  0  0  0  0  0  0
   -6.8708   -1.0888  -18.9007 C   0  0  0  0  0  0  0  0  0  0  0  0
   -6.1864   -0.6356  -17.8191 N   0  0  0  0  0  0  0  0  0  0  0  0
   -5.2063    0.2103  -18.0308 C   0  0  0  0  0  0  0  0  0  0  0  0
   -4.8198    0.6746  -19.3232 C   0  0  0  0  0  0  0  0  0  0  0  0
   -3.7055    1.5282  -19.5370 C   0  0  0  0  0  0  0  0  0  0  0  0
   -3.3914    1.9521  -20.7988 C   0  0  0  0  0  0  0  0  0  0  0  0
   -4.1775    1.5620  -21.9056 C   0  0  0  0  0  0  0  0  0  0  0  0
   -5.2509    0.7266  -21.7301 C   0  0  0  0  0  0  0  0  0  0  0  0
   -5.5782    0.2485  -20.4361 C   0  0  0  0  0  0  0  0  0  0  0  0
   -5.8438    0.4053  -22.5800 H   0  0  0  0  0  0  0  0  0  0  0  0
   -3.9314    1.9236  -22.8983 H   0  0  0  0  0  0  0  0  0  0  0  0
   -2.5461    2.6148  -20.9596 H   0  0  0  0  0  0  0  0  0  0  0  0
   -3.1186    1.8407  -18.6779 H   0  0  0  0  0  0  0  0  0  0  0  0
   -4.6608    0.5663  -17.1550 H   0  0  0  0  0  0  0  0  0  0  0  0
   -7.6599   -1.8077  -18.6907 H   0  0  0  0  0  0  0  0  0  0  0  0
   -8.4842   -0.3770  -21.8772 C   0  0  0  0  0  0  0  0  0  0  0  0
   -8.9669   -1.2949  -23.0067 C   0  0  2  0  0  0  0  0  0  0  0  0
  -10.3521   -0.9424  -23.5145 C   0  0  0  0  0  0  0  0  0  0  0  0
  -11.0742   -0.9634  -22.6953 H   0  0  0  0  0  0  0  0  0  0  0  0
  -10.3601    0.0597  -23.9542 H   0  0  0  0  0  0  0  0  0  0  0  0
  -10.6808   -1.6557  -24.2769 H   0  0  0  0  0  0  0  0  0  0  0  0
   -8.2564   -1.2137  -23.8398 H   0  0  0  0  0  0  0  0  0  0  0  0
   -8.1165    0.5855  -22.2397 H   0  0  0  0  0  0  0  0  0  0  0  0
   -9.2937   -0.1686  -21.1567 H   0  0  0  0  0  0  0  0  0  0  0  0
   -8.5376   -3.8132  -23.4690 C   0  0  0  0  0  0  0  0  0  0  0  0
   -7.2715   -4.0307  -24.0289 C   0  0  0  0  0  0  0  0  0  0  0  0
   -7.0833   -5.0451  -24.9538 C   0  0  0  0  0  0  0  0  0  0  0  0
   -5.5066   -5.3069  -25.6431 Cl  0  0  0  0  0  0  0  0  0  0  0  0
   -8.1329   -5.8616  -25.3716 C   0  0  0  0  0  0  0  0  0  0  0  0
   -9.3905   -5.6198  -24.8535 C   0  0  0  0  0  0  0  0  0  0  0  0
   -9.5979   -4.6108  -23.9136 C   0  0  0  0  0  0  0  0  0  0  0  0
  -10.9847   -4.4220  -23.3977 C   0  0  0  0  0  0  0  0  0  0  0  0
  -11.9469   -4.9268  -23.9587 O   0  0  0  0  0  0  0  0  0  0  0  0
  -10.2480   -6.2072  -25.1610 H   0  0  0  0  0  0  0  0  0  0  0  0
   -7.9562   -6.6613  -26.0869 H   0  0  0  0  0  0  0  0  0  0  0  0
   -6.4221   -3.4279  -23.7280 H   0  0  0  0  0  0  0  0  0  0  0  0
   -9.5581   -4.0143  -20.8986 H   0  0  0  0  0  0  0  0  0  0  0  0
  -10.2648   -2.3835  -20.8803 H   0  0  0  0  0  0  0  0  0  0  0  0
  -12.9374   -4.5408  -22.0997 H   0  0  0  0  0  0  0  0  0  0  0  0
  -12.1886   -4.1977  -20.5274 H   0  0  0  0  0  0  0  0  0  0  0  0
  -13.0581   -2.3853  -23.3851 H   0  0  0  0  0  0  0  0  0  0  0  0
  -14.2578   -0.0748  -23.1087 H   0  0  0  0  0  0  0  0  0  0  0  0
  -15.2750   -1.4665  -23.5188 H   0  0  0  0  0  0  0  0  0  0  0  0
  -15.1154   -1.0091  -21.8253 H   0  0  0  0  0  0  0  0  0  0  0  0
  1  2  1  0
  2  3  1  0
  3  4  2  0
  3  5  1  0
  5  6  1  0
  6  7  1  0
  8  7  1  1
  8  9  1  0
  9 10  2  0
  9 11  1  0
 11 12  1  0
 12 13  2  0
 13 14  1  0
 14 15  2  0
 15 16  1  0
 16 17  2  0
 17 18  1  0
 18 19  2  0
 19 20  1  0
 20 21  2  0
 20 22  1  0
 19 23  1  0
 18 24  1  0
 17 25  1  0
 15 26  1  0
 13 27  1  0
 11 28  1  0
 28 29  1  0
 29 30  1  0
 30 31  1  0
 30 32  1  0
 30 33  1  0
 29 34  1  6
 28 35  1  0
 28 36  1  0
  8 37  1  0
 37 38  2  0
 38 39  1  0
 39 40  1  0
 39 41  2  0
 41 42  1  0
 42 43  2  0
 43 44  1  0
 44 45  2  0
 42 46  1  0
 41 47  1  0
 38 48  1  0
  7 49  1  0
  7 50  1  0
  5 51  1  0
  5 52  1  0
  2 53  1  0
  1 54  1  0
  1 55  1  0
  1 56  1  0
 44  6  1  0
 29  8  1  0
 43 37  1  0
 21 12  1  0
 21 16  1  0
M  END
>  <cnnaffinities>  (76) 
[6.42774]

>  <score>  (76) 
6.42774

>  <index>  (76) 
78

>  <Smiles>  (76) 
C(N(C(=O)C(N1C([C@@]2(C(=O)N(c3c(nc(c4c(c(c(c(c34)[H])[H])[H])[H])[H])[H])C([C@@]2(C([H])([H])[H])[H])([H])[H])c2c(c(Cl)c(c(c2C1=O)[H])[H])[H])([H])[H])([H])[H])[H])([H])([H])[H]

>  <h>  (76) 
<NA>

>  <Training>  (76) 
True

>  <Success>  (76) 
True

>  <enamine_searched>  (76) 
False

>  <enamine_id>  (76) 
nan

$$$$

     RDKit          3D

 45 49  0  0  0  0  0  0  0  0999 V2000
   -9.6297   -0.9230  -24.0345 C   0  0  0  0  0  0  0  0  0  0  0  0
   -8.6449   -1.3744  -23.0844 N   0  0  0  0  0  0  0  0  0  0  0  0
   -8.4227   -0.7192  -21.8998 C   0  0  0  0  0  0  0  0  0  0  0  0
   -9.0052    0.2410  -21.4559 O   0  0  0  0  0  0  0  0  0  0  0  0
   -7.3507   -1.3911  -21.2867 N   0  0  0  0  0  0  0  0  0  0  0  0
   -6.5981   -0.7986  -20.2346 C   0  0  0  0  0  0  0  0  0  0  0  0
   -6.9285   -1.0668  -18.9344 C   0  0  0  0  0  0  0  0  0  0  0  0
   -6.2443   -0.5905  -17.8634 N   0  0  0  0  0  0  0  0  0  0  0  0
   -5.2158    0.1889  -18.0993 C   0  0  0  0  0  0  0  0  0  0  0  0
   -4.7810    0.5637  -19.4047 C   0  0  0  0  0  0  0  0  0  0  0  0
   -3.6403    1.3869  -19.6118 C   0  0  0  0  0  0  0  0  0  0  0  0
   -3.2609    1.7300  -20.8833 C   0  0  0  0  0  0  0  0  0  0  0  0
   -4.0203    1.2991  -21.9970 C   0  0  0  0  0  0  0  0  0  0  0  0
   -5.1101    0.4802  -21.8221 C   0  0  0  0  0  0  0  0  0  0  0  0
   -5.5024    0.0779  -20.5139 C   0  0  0  0  0  0  0  0  0  0  0  0
   -5.6586    0.1116  -22.6829 H   0  0  0  0  0  0  0  0  0  0  0  0
   -3.7098    1.5752  -23.0038 H   0  0  0  0  0  0  0  0  0  0  0  0
   -2.3735    2.3377  -21.0525 H   0  0  0  0  0  0  0  0  0  0  0  0
   -3.0762    1.7198  -18.7427 H   0  0  0  0  0  0  0  0  0  0  0  0
   -4.6665    0.5704  -17.2366 H   0  0  0  0  0  0  0  0  0  0  0  0
   -7.7814   -1.7084  -18.7251 H   0  0  0  0  0  0  0  0  0  0  0  0
   -6.9135   -2.4792  -22.0528 C   0  0  0  0  0  0  0  0  0  0  0  0
   -6.0114   -3.2272  -21.7672 O   0  0  0  0  0  0  0  0  0  0  0  0
   -7.7709   -2.4939  -23.3061 C   0  0  0  0  0  0  0  0  0  0  0  0
   -6.9768   -2.5678  -24.6359 C   0  0  0  0  0  0  0  0  0  0  0  0
   -7.6199   -3.8714  -24.9507 N   0  0  0  0  0  0  0  0  0  0  0  0
   -8.4198   -3.9302  -26.4283 S   0  0  0  0  0  0  0  0  0  0  0  0
   -9.4709   -2.9158  -26.4227 O   0  0  0  0  0  0  0  0  0  0  0  0
   -7.3849   -3.9072  -27.4433 O   0  0  0  0  0  0  0  0  0  0  0  0
   -9.2162   -5.5150  -26.4770 C   0  0  0  0  0  0  0  0  0  0  0  0
  -10.3283   -5.6205  -27.4894 C   0  0  0  0  0  0  0  0  0  0  0  0
  -10.6534   -5.5930  -26.0351 C   0  0  0  0  0  0  0  0  0  0  0  0
  -11.0823   -4.6828  -25.6272 H   0  0  0  0  0  0  0  0  0  0  0  0
  -10.9651   -6.5147  -25.5584 H   0  0  0  0  0  0  0  0  0  0  0  0
  -10.5393   -4.7387  -28.0840 H   0  0  0  0  0  0  0  0  0  0  0  0
  -10.4264   -6.5572  -28.0246 H   0  0  0  0  0  0  0  0  0  0  0  0
   -8.5475   -6.3595  -26.3288 H   0  0  0  0  0  0  0  0  0  0  0  0
   -8.4048   -3.8537  -23.7009 C   0  0  0  0  0  0  0  0  0  0  0  0
   -9.4879   -3.8575  -23.8487 H   0  0  0  0  0  0  0  0  0  0  0  0
   -8.1130   -4.6809  -23.0526 H   0  0  0  0  0  0  0  0  0  0  0  0
   -5.9006   -2.6830  -24.5006 H   0  0  0  0  0  0  0  0  0  0  0  0
   -7.1754   -1.7659  -25.3527 H   0  0  0  0  0  0  0  0  0  0  0  0
  -10.1623   -0.0977  -23.5640 H   0  0  0  0  0  0  0  0  0  0  0  0
   -9.1469   -0.5782  -24.9529 H   0  0  0  0  0  0  0  0  0  0  0  0
  -10.3205   -1.7347  -24.2721 H   0  0  0  0  0  0  0  0  0  0  0  0
  1  2  1  0
  2  3  1  0
  3  4  2  0
  3  5  1  0
  5  6  1  0
  6  7  2  0
  7  8  1  0
  8  9  2  0
  9 10  1  0
 10 11  2  0
 11 12  1  0
 12 13  2  0
 13 14  1  0
 14 15  2  0
 14 16  1  0
 13 17  1  0
 12 18  1  0
 11 19  1  0
  9 20  1  0
  7 21  1  0
  5 22  1  0
 22 23  2  0
 22 24  1  0
 24 25  1  0
 25 26  1  0
 26 27  1  0
 27 28  2  0
 27 29  2  0
 27 30  1  0
 30 31  1  0
 31 32  1  0
 32 33  1  0
 32 34  1  0
 31 35  1  0
 31 36  1  0
 30 37  1  0
 26 38  1  0
 38 39  1  0
 38 40  1  0
 25 41  1  0
 25 42  1  0
  1 43  1  0
  1 44  1  0
  1 45  1  0
 24  2  1  0
 32 30  1  0
 15  6  1  0
 38 24  1  0
 15 10  1  0
M  END
>  <cnnaffinities>  (77) 
[4.86995, 5.09237]

>  <score>  (77) 
4.86995

>  <index>  (77) 
79

>  <Smiles>  (77) 
C(N1C(=O)N(c2c(nc(c3c(c(c(c(c23)[H])[H])[H])[H])[H])[H])C(=O)C21C(N(S(=O)(=O)C1(C(C1([H])[H])([H])[H])[H])C2([H])[H])([H])[H])([H])([H])[H]

>  <h>  (77) 
<NA>

>  <Training>  (77) 
True

>  <Success>  (77) 
True

>  <enamine_searched>  (77) 
False

>  <enamine_id>  (77) 
nan

$$$$

     RDKit          3D

 60 65  0  0  0  0  0  0  0  0999 V2000
   -6.8175    3.5295  -23.4433 C   0  0  0  0  0  0  0  0  0  0  0  0
   -7.5701    2.6907  -24.3514 N   0  0  0  0  0  0  0  0  0  0  0  0
   -6.9991    1.6078  -24.9119 C   0  0  0  0  0  0  0  0  0  0  0  0
   -5.7990    1.3862  -24.8343 O   0  0  0  0  0  0  0  0  0  0  0  0
   -7.9258    0.7083  -25.7151 C   0  0  0  0  0  0  0  0  0  0  0  0
   -8.9472    0.0202  -24.9898 N   0  0  0  0  0  0  0  0  0  0  0  0
   -8.6268   -1.2744  -24.4081 C   0  0  0  0  0  0  0  0  0  0  0  0
   -9.1285   -1.4072  -22.9463 C   0  0  2  0  0  0  0  0  0  0  0  0
   -8.3045   -0.4739  -22.0256 C   0  0  0  0  0  0  0  0  0  0  0  0
   -8.3236    0.7424  -22.0226 O   0  0  0  0  0  0  0  0  0  0  0  0
   -7.4897   -1.2387  -21.2241 N   0  0  0  0  0  0  0  0  0  0  0  0
   -6.6755   -0.7074  -20.1967 C   0  0  0  0  0  0  0  0  0  0  0  0
   -6.9195   -1.0471  -18.8880 C   0  0  0  0  0  0  0  0  0  0  0  0
   -6.2189   -0.5841  -17.8257 N   0  0  0  0  0  0  0  0  0  0  0  0
   -5.1964    0.1995  -18.0746 C   0  0  0  0  0  0  0  0  0  0  0  0
   -4.7912    0.5784  -19.3860 C   0  0  0  0  0  0  0  0  0  0  0  0
   -3.6518    1.3998  -19.6039 C   0  0  0  0  0  0  0  0  0  0  0  0
   -3.2885    1.7661  -20.8709 C   0  0  0  0  0  0  0  0  0  0  0  0
   -4.0605    1.3454  -21.9781 C   0  0  0  0  0  0  0  0  0  0  0  0
   -5.1567    0.5377  -21.7949 C   0  0  0  0  0  0  0  0  0  0  0  0
   -5.5572    0.1356  -20.4894 C   0  0  0  0  0  0  0  0  0  0  0  0
   -5.7078    0.1892  -22.6630 H   0  0  0  0  0  0  0  0  0  0  0  0
   -3.7809    1.6402  -22.9873 H   0  0  0  0  0  0  0  0  0  0  0  0
   -2.4095    2.3844  -21.0319 H   0  0  0  0  0  0  0  0  0  0  0  0
   -3.0904    1.7386  -18.7367 H   0  0  0  0  0  0  0  0  0  0  0  0
   -4.6329    0.5770  -17.2196 H   0  0  0  0  0  0  0  0  0  0  0  0
   -7.7497   -1.7115  -18.6492 H   0  0  0  0  0  0  0  0  0  0  0  0
   -7.5957   -2.6604  -21.4593 C   0  0  0  0  0  0  0  0  0  0  0  0
   -8.8339   -2.8129  -22.3476 C   0  0  2  0  0  0  0  0  0  0  0  0
   -8.7326   -3.9720  -23.3328 C   0  0  0  0  0  0  0  0  0  0  0  0
   -7.8826   -3.8455  -24.0135 H   0  0  0  0  0  0  0  0  0  0  0  0
   -9.6431   -4.0505  -23.9368 H   0  0  0  0  0  0  0  0  0  0  0  0
   -8.6011   -4.9204  -22.8007 H   0  0  0  0  0  0  0  0  0  0  0  0
   -9.6491   -3.0462  -21.6679 H   0  0  0  0  0  0  0  0  0  0  0  0
   -7.7277   -3.1808  -20.5112 H   0  0  0  0  0  0  0  0  0  0  0  0
   -6.6892   -3.0528  -21.9342 H   0  0  0  0  0  0  0  0  0  0  0  0
  -10.5999   -1.0131  -22.9471 C   0  0  0  0  0  0  0  0  0  0  0  0
  -11.5255   -1.6112  -22.0806 C   0  0  0  0  0  0  0  0  0  0  0  0
  -12.8446   -1.2007  -22.0891 C   0  0  0  0  0  0  0  0  0  0  0  0
  -14.0027   -2.0126  -21.0597 Cl  0  0  0  0  0  0  0  0  0  0  0  0
  -13.2882   -0.1625  -22.9032 C   0  0  0  0  0  0  0  0  0  0  0  0
  -12.3827    0.4537  -23.7471 C   0  0  0  0  0  0  0  0  0  0  0  0
  -11.0567    0.0109  -23.7967 C   0  0  0  0  0  0  0  0  0  0  0  0
  -10.1509    0.6432  -24.8025 C   0  0  0  0  0  0  0  0  0  0  0  0
  -10.4438    1.6655  -25.4175 O   0  0  0  0  0  0  0  0  0  0  0  0
  -12.6524    1.2698  -24.4113 H   0  0  0  0  0  0  0  0  0  0  0  0
  -14.3434    0.0941  -22.8766 H   0  0  0  0  0  0  0  0  0  0  0  0
  -11.2542   -2.4029  -21.3897 H   0  0  0  0  0  0  0  0  0  0  0  0
   -7.5447   -1.3883  -24.4563 H   0  0  0  0  0  0  0  0  0  0  0  0
   -9.0819   -2.0686  -25.0124 H   0  0  0  0  0  0  0  0  0  0  0  0
   -7.2459   -0.0185  -26.8365 C   0  0  0  0  0  0  0  0  0  0  0  0
   -8.1782    1.1076  -27.1384 C   0  0  0  0  0  0  0  0  0  0  0  0
   -9.1630    0.8668  -27.5221 H   0  0  0  0  0  0  0  0  0  0  0  0
   -7.7740    2.0602  -27.4543 H   0  0  0  0  0  0  0  0  0  0  0  0
   -7.5866   -1.0270  -27.0430 H   0  0  0  0  0  0  0  0  0  0  0  0
   -6.1831    0.1702  -26.9008 H   0  0  0  0  0  0  0  0  0  0  0  0
   -8.5728    2.7640  -24.3856 H   0  0  0  0  0  0  0  0  0  0  0  0
   -6.4510    2.9442  -22.5901 H   0  0  0  0  0  0  0  0  0  0  0  0
   -5.9527    3.9649  -23.9501 H   0  0  0  0  0  0  0  0  0  0  0  0
   -7.4635    4.3321  -23.0843 H   0  0  0  0  0  0  0  0  0  0  0  0
  1  2  1  0
  2  3  1  0
  3  4  2  0
  3  5  1  0
  5  6  1  0
  6  7  1  0
  8  7  1  6
  8  9  1  0
  9 10  2  0
  9 11  1  0
 11 12  1  0
 12 13  2  0
 13 14  1  0
 14 15  2  0
 15 16  1  0
 16 17  2  0
 17 18  1  0
 18 19  2  0
 19 20  1  0
 20 21  2  0
 20 22  1  0
 19 23  1  0
 18 24  1  0
 17 25  1  0
 15 26  1  0
 13 27  1  0
 11 28  1  0
 28 29  1  0
 29 30  1  0
 30 31  1  0
 30 32  1  0
 30 33  1  0
 29 34  1  1
 28 35  1  0
 28 36  1  0
  8 37  1  0
 37 38  2  0
 38 39  1  0
 39 40  1  0
 39 41  2  0
 41 42  1  0
 42 43  2  0
 43 44  1  0
 44 45  2  0
 42 46  1  0
 41 47  1  0
 38 48  1  0
  7 49  1  0
  7 50  1  0
  5 51  1  0
 51 52  1  0
 52 53  1  0
 52 54  1  0
 51 55  1  0
 51 56  1  0
  2 57  1  0
  1 58  1  0
  1 59  1  0
  1 60  1  0
 52  5  1  0
 44  6  1  0
 29  8  1  0
 43 37  1  0
 21 12  1  0
 21 16  1  0
M  END
>  <cnnaffinities>  (78) 
[5.64442]

>  <score>  (78) 
5.64442

>  <index>  (78) 
80

>  <Smiles>  (78) 
C(N(C(=O)C1(N2C([C@@]3(C(=O)N(c4c(nc(c5c(c(c(c(c45)[H])[H])[H])[H])[H])[H])C([C@@]3(C([H])([H])[H])[H])([H])[H])c3c(c(Cl)c(c(c3C2=O)[H])[H])[H])([H])[H])C(C1([H])[H])([H])[H])[H])([H])([H])[H]

>  <h>  (78) 
<NA>

>  <Training>  (78) 
True

>  <Success>  (78) 
True

>  <enamine_searched>  (78) 
False

>  <enamine_id>  (78) 
nan

$$$$

     RDKit          3D

 36 38  0  0  0  0  0  0  0  0999 V2000
   -8.5113    0.7123  -21.4664 O   0  0  0  0  0  0  0  0  0  0  0  0
   -8.3853   -0.4005  -21.9341 C   0  0  0  0  0  0  0  0  0  0  0  0
   -7.4391   -1.4325  -21.2766 C   0  0  0  0  0  0  0  0  0  0  0  0
   -6.5823   -0.8273  -20.1854 C   0  0  0  0  0  0  0  0  0  0  0  0
   -6.8792   -1.0419  -18.8638 C   0  0  0  0  0  0  0  0  0  0  0  0
   -6.1949   -0.5372  -17.8015 N   0  0  0  0  0  0  0  0  0  0  0  0
   -5.1571    0.2204  -18.0632 C   0  0  0  0  0  0  0  0  0  0  0  0
   -4.7270    0.5372  -19.3788 C   0  0  0  0  0  0  0  0  0  0  0  0
   -3.6000    1.3670  -19.6159 C   0  0  0  0  0  0  0  0  0  0  0  0
   -3.2307    1.6939  -20.8940 C   0  0  0  0  0  0  0  0  0  0  0  0
   -4.0009    1.2305  -21.9827 C   0  0  0  0  0  0  0  0  0  0  0  0
   -5.0852    0.4054  -21.7790 C   0  0  0  0  0  0  0  0  0  0  0  0
   -5.4708    0.0237  -20.4699 C   0  0  0  0  0  0  0  0  0  0  0  0
   -5.5889   -0.0454  -22.6282 H   0  0  0  0  0  0  0  0  0  0  0  0
   -3.6422    1.4078  -22.9919 H   0  0  0  0  0  0  0  0  0  0  0  0
   -2.3485    2.3026  -21.0829 H   0  0  0  0  0  0  0  0  0  0  0  0
   -3.0571    1.7686  -18.7632 H   0  0  0  0  0  0  0  0  0  0  0  0
   -4.6037    0.6265  -17.2140 H   0  0  0  0  0  0  0  0  0  0  0  0
   -7.7290   -1.6602  -18.5838 H   0  0  0  0  0  0  0  0  0  0  0  0
   -6.8058   -1.8999  -22.0437 H   0  0  0  0  0  0  0  0  0  0  0  0
   -8.0420   -2.2456  -20.8461 H   0  0  0  0  0  0  0  0  0  0  0  0
   -9.0570   -0.7712  -23.0912 N   0  0  0  0  0  0  0  0  0  0  0  0
  -10.0043    0.1948  -23.6401 C   0  0  0  0  0  0  0  0  0  0  0  0
  -11.3788    0.2139  -23.0184 C   0  0  0  0  0  0  0  0  0  0  0  0
  -12.0207   -0.7910  -22.4148 C   0  0  0  0  0  0  0  0  0  0  0  0
  -11.5706   -2.1752  -22.1550 C   0  0  0  0  0  0  0  0  0  0  0  0
  -10.4462   -2.7788  -22.5490 C   0  0  0  0  0  0  0  0  0  0  0  0
   -9.3661   -2.1597  -23.4021 C   0  0  0  0  0  0  0  0  0  0  0  0
   -8.4497   -2.7538  -23.3576 H   0  0  0  0  0  0  0  0  0  0  0  0
   -9.6811   -2.1696  -24.4519 H   0  0  0  0  0  0  0  0  0  0  0  0
  -10.2862   -3.8158  -22.2486 H   0  0  0  0  0  0  0  0  0  0  0  0
  -12.2817   -2.7639  -21.5769 H   0  0  0  0  0  0  0  0  0  0  0  0
  -13.0217   -0.5836  -22.0384 H   0  0  0  0  0  0  0  0  0  0  0  0
  -11.8914    1.1768  -23.0834 H   0  0  0  0  0  0  0  0  0  0  0  0
  -10.1080   -0.0438  -24.7050 H   0  0  0  0  0  0  0  0  0  0  0  0
   -9.5571    1.1907  -23.5907 H   0  0  0  0  0  0  0  0  0  0  0  0
  1  2  2  0
  2  3  1  0
  3  4  1  0
  4  5  2  0
  5  6  1  0
  6  7  2  0
  7  8  1  0
  8  9  2  0
  9 10  1  0
 10 11  2  0
 11 12  1  0
 12 13  2  0
 12 14  1  0
 11 15  1  0
 10 16  1  0
  9 17  1  0
  7 18  1  0
  5 19  1  0
  3 20  1  0
  3 21  1  0
  2 22  1  0
 22 23  1  0
 23 24  1  0
 24 25  2  0
 25 26  1  0
 26 27  2  0
 27 28  1  0
 28 29  1  0
 28 30  1  0
 27 31  1  0
 26 32  1  0
 25 33  1  0
 24 34  1  0
 23 35  1  0
 23 36  1  0
 13  4  1  0
 28 22  1  0
 13  8  1  0
M  END
>  <cnnaffinities>  (79) 
[4.11147, 4.11151, 4.3657, 4.36565]

>  <score>  (79) 
4.11147

>  <index>  (79) 
81

>  <Smiles>  (79) 
O=C(C(c1c(nc(c2c(c(c(c(c12)[H])[H])[H])[H])[H])[H])([H])[H])N1C(C(=C(C(=C(C1([H])[H])[H])[H])[H])[H])([H])[H]

>  <h>  (79) 
<NA>

>  <Training>  (79) 
True

>  <Success>  (79) 
True

>  <enamine_searched>  (79) 
False

>  <enamine_id>  (79) 
nan

$$$$

     RDKit          3D

 54 57  0  0  0  0  0  0  0  0999 V2000
  -10.6765    0.3763  -25.3835 C   0  0  0  0  0  0  0  0  0  0  0  0
   -9.8030   -0.6076  -24.8937 O   0  0  0  0  0  0  0  0  0  0  0  0
   -8.4835   -0.5155  -25.2024 C   0  0  0  0  0  0  0  0  0  0  0  0
   -7.9512    0.5123  -25.9796 C   0  0  0  0  0  0  0  0  0  0  0  0
   -6.5841    0.5425  -26.2400 C   0  0  0  0  0  0  0  0  0  0  0  0
   -5.7660   -0.4512  -25.7195 C   0  0  0  0  0  0  0  0  0  0  0  0
   -6.3129   -1.4697  -24.9359 C   0  0  0  0  0  0  0  0  0  0  0  0
   -7.6727   -1.5378  -24.6701 C   0  0  0  0  0  0  0  0  0  0  0  0
   -8.3117   -2.6558  -23.8307 C   0  0  1  0  0  0  0  0  0  0  0  0
   -9.1482   -3.6418  -24.6812 C   0  0  0  0  0  0  0  0  0  0  0  0
   -8.4047   -4.8515  -25.2683 C   0  0  1  0  0  0  0  0  0  0  0  0
   -7.5031   -4.5279  -26.4658 C   0  0  0  0  0  0  0  0  0  0  0  0
   -6.6805   -3.8592  -26.1928 H   0  0  0  0  0  0  0  0  0  0  0  0
   -7.0684   -5.4441  -26.8836 H   0  0  0  0  0  0  0  0  0  0  0  0
   -8.0767   -4.0389  -27.2617 H   0  0  0  0  0  0  0  0  0  0  0  0
   -7.6733   -5.5480  -24.1155 C   0  0  0  0  0  0  0  0  0  0  0  0
   -6.7182   -4.5993  -23.4010 C   0  0  0  0  0  0  0  0  0  0  0  0
   -7.3661   -3.3621  -22.9582 N   0  0  0  0  0  0  0  0  0  0  0  0
   -6.7443   -2.7487  -21.8897 C   0  0  0  0  0  0  0  0  0  0  0  0
   -5.7228   -3.2110  -21.4075 O   0  0  0  0  0  0  0  0  0  0  0  0
   -7.3946   -1.4848  -21.2938 C   0  0  0  0  0  0  0  0  0  0  0  0
   -6.5843   -0.8350  -20.1976 C   0  0  0  0  0  0  0  0  0  0  0  0
   -6.8753   -1.0687  -18.8774 C   0  0  0  0  0  0  0  0  0  0  0  0
   -6.1974   -0.5607  -17.8114 N   0  0  0  0  0  0  0  0  0  0  0  0
   -5.1687    0.2075  -18.0676 C   0  0  0  0  0  0  0  0  0  0  0  0
   -4.7462    0.5518  -19.3800 C   0  0  0  0  0  0  0  0  0  0  0  0
   -3.6213    1.3825  -19.6060 C   0  0  0  0  0  0  0  0  0  0  0  0
   -3.2543    1.7119  -20.8813 C   0  0  0  0  0  0  0  0  0  0  0  0
   -4.0140    1.2502  -21.9789 C   0  0  0  0  0  0  0  0  0  0  0  0
   -5.0983    0.4256  -21.7829 C   0  0  0  0  0  0  0  0  0  0  0  0
   -5.4912    0.0455  -20.4736 C   0  0  0  0  0  0  0  0  0  0  0  0
   -5.6165   -0.0076  -22.6383 H   0  0  0  0  0  0  0  0  0  0  0  0
   -3.6842    1.4788  -22.9911 H   0  0  0  0  0  0  0  0  0  0  0  0
   -2.3576    2.2918  -21.0649 H   0  0  0  0  0  0  0  0  0  0  0  0
   -3.0616    1.7365  -18.7427 H   0  0  0  0  0  0  0  0  0  0  0  0
   -4.6234    0.6170  -17.2149 H   0  0  0  0  0  0  0  0  0  0  0  0
   -7.7267   -1.6891  -18.6013 H   0  0  0  0  0  0  0  0  0  0  0  0
   -7.6102   -0.7753  -22.1014 H   0  0  0  0  0  0  0  0  0  0  0  0
   -8.3694   -1.7881  -20.8883 H   0  0  0  0  0  0  0  0  0  0  0  0
   -6.3215   -5.0586  -22.4951 H   0  0  0  0  0  0  0  0  0  0  0  0
   -5.8518   -4.3776  -24.0457 H   0  0  0  0  0  0  0  0  0  0  0  0
   -8.4168   -5.9167  -23.3928 H   0  0  0  0  0  0  0  0  0  0  0  0
   -7.1025   -6.4139  -24.4865 H   0  0  0  0  0  0  0  0  0  0  0  0
   -9.1804   -5.5431  -25.6273 H   0  0  0  0  0  0  0  0  0  0  0  0
   -9.6258   -3.0608  -25.4784 H   0  0  0  0  0  0  0  0  0  0  0  0
   -9.9398   -4.0291  -24.0245 H   0  0  0  0  0  0  0  0  0  0  0  0
   -9.0383   -2.1591  -23.1754 H   0  0  0  0  0  0  0  0  0  0  0  0
   -5.6671   -2.2567  -24.5464 H   0  0  0  0  0  0  0  0  0  0  0  0
   -4.7011   -0.4569  -25.9234 H   0  0  0  0  0  0  0  0  0  0  0  0
   -6.1689    1.3455  -26.8474 H   0  0  0  0  0  0  0  0  0  0  0  0
   -8.6018    1.2827  -26.3763 H   0  0  0  0  0  0  0  0  0  0  0  0
  -11.6595    0.0605  -25.0271 H   0  0  0  0  0  0  0  0  0  0  0  0
  -10.6539    0.4201  -26.4830 H   0  0  0  0  0  0  0  0  0  0  0  0
  -10.4260    1.3706  -24.9850 H   0  0  0  0  0  0  0  0  0  0  0  0
  1  2  1  0
  2  3  1  0
  3  4  2  0
  4  5  1  0
  5  6  2  0
  6  7  1  0
  7  8  2  0
  8  9  1  0
  9 10  1  0
 10 11  1  0
 11 12  1  0
 12 13  1  0
 12 14  1  0
 12 15  1  0
 11 16  1  0
 16 17  1  0
 17 18  1  0
 18 19  1  0
 19 20  2  0
 19 21  1  0
 21 22  1  0
 22 23  2  0
 23 24  1  0
 24 25  2  0
 25 26  1  0
 26 27  2  0
 27 28  1  0
 28 29  2  0
 29 30  1  0
 30 31  2  0
 30 32  1  0
 29 33  1  0
 28 34  1  0
 27 35  1  0
 25 36  1  0
 23 37  1  0
 21 38  1  0
 21 39  1  0
 17 40  1  0
 17 41  1  0
 16 42  1  0
 16 43  1  0
 11 44  1  6
 10 45  1  0
 10 46  1  0
  9 47  1  1
  7 48  1  0
  6 49  1  0
  5 50  1  0
  4 51  1  0
  1 52  1  0
  1 53  1  0
  1 54  1  0
  8  3  1  0
 18  9  1  0
 31 22  1  0
 31 26  1  0
M  END
>  <cnnaffinities>  (80) 
[5.50945, 5.63749]

>  <score>  (80) 
5.50945

>  <index>  (80) 
82

>  <Smiles>  (80) 
C(Oc1c(c(c(c(c1[C@]1(C([C@@](C([H])([H])[H])(C(C(N1C(=O)C(c1c(nc(c2c(c(c(c(c12)[H])[H])[H])[H])[H])[H])([H])[H])([H])[H])([H])[H])[H])([H])[H])[H])[H])[H])[H])[H])([H])([H])[H]

>  <h>  (80) 
<NA>

>  <Training>  (80) 
True

>  <Success>  (80) 
True

>  <enamine_searched>  (80) 
False

>  <enamine_id>  (80) 
nan

$$$$

     RDKit          3D

 46 50  0  0  0  0  0  0  0  0999 V2000
   -5.6163   -4.0274  -25.8467 N   0  0  0  0  0  0  0  0  0  0  0  0
   -5.7939   -2.6825  -26.8202 S   0  0  0  0  0  0  0  0  0  0  0  0
   -6.0470   -3.0857  -28.1976 O   0  0  0  0  0  0  0  0  0  0  0  0
   -4.6771   -1.8063  -26.5109 O   0  0  0  0  0  0  0  0  0  0  0  0
   -7.3014   -2.0247  -26.1884 C   0  0  0  0  0  0  0  0  0  0  0  0
   -8.1726   -1.4404  -27.1041 C   0  0  0  0  0  0  0  0  0  0  0  0
   -9.3541   -0.8814  -26.6561 C   0  0  0  0  0  0  0  0  0  0  0  0
   -9.6643   -0.9183  -25.2931 C   0  0  0  0  0  0  0  0  0  0  0  0
   -8.7879   -1.5060  -24.3646 C   0  0  0  0  0  0  0  0  0  0  0  0
   -7.6131   -2.0920  -24.8390 C   0  0  0  0  0  0  0  0  0  0  0  0
   -6.9548   -2.6279  -24.1598 H   0  0  0  0  0  0  0  0  0  0  0  0
   -9.1121   -1.5348  -22.8736 C   0  0  1  0  0  0  0  0  0  0  0  0
  -10.6187   -1.2790  -22.7019 C   0  0  0  0  0  0  0  0  0  0  0  0
  -11.0453   -0.1004  -23.5735 C   0  0  0  0  0  0  0  0  0  0  0  0
  -10.8825   -0.4123  -24.9555 O   0  0  0  0  0  0  0  0  0  0  0  0
  -10.4541    0.7929  -23.3326 H   0  0  0  0  0  0  0  0  0  0  0  0
  -12.1095    0.1195  -23.4435 H   0  0  0  0  0  0  0  0  0  0  0  0
  -10.8415   -1.0850  -21.6501 H   0  0  0  0  0  0  0  0  0  0  0  0
  -11.1732   -2.1694  -23.0218 H   0  0  0  0  0  0  0  0  0  0  0  0
   -8.6625   -2.7647  -22.2248 N   0  0  0  0  0  0  0  0  0  0  0  0
   -7.4873   -2.5966  -21.5328 C   0  0  0  0  0  0  0  0  0  0  0  0
   -6.6731   -3.4321  -21.2196 O   0  0  0  0  0  0  0  0  0  0  0  0
   -7.3859   -1.2166  -21.2894 N   0  0  0  0  0  0  0  0  0  0  0  0
   -6.6239   -0.6610  -20.2239 C   0  0  0  0  0  0  0  0  0  0  0  0
   -6.9208   -0.9872  -18.9237 C   0  0  0  0  0  0  0  0  0  0  0  0
   -6.2365   -0.5303  -17.8463 N   0  0  0  0  0  0  0  0  0  0  0  0
   -5.2024    0.2433  -18.0711 C   0  0  0  0  0  0  0  0  0  0  0  0
   -4.7814    0.6613  -19.3647 C   0  0  0  0  0  0  0  0  0  0  0  0
   -3.6306    1.4748  -19.5605 C   0  0  0  0  0  0  0  0  0  0  0  0
   -3.2739    1.8590  -20.8241 C   0  0  0  0  0  0  0  0  0  0  0  0
   -4.0590    1.4802  -21.9385 C   0  0  0  0  0  0  0  0  0  0  0  0
   -5.1777    0.7006  -21.7712 C   0  0  0  0  0  0  0  0  0  0  0  0
   -5.5415    0.2385  -20.4768 C   0  0  0  0  0  0  0  0  0  0  0  0
   -5.7914    0.4094  -22.6205 H   0  0  0  0  0  0  0  0  0  0  0  0
   -3.7575    1.7746  -22.9400 H   0  0  0  0  0  0  0  0  0  0  0  0
   -2.3726    2.4452  -20.9843 H   0  0  0  0  0  0  0  0  0  0  0  0
   -3.0441    1.7648  -18.6908 H   0  0  0  0  0  0  0  0  0  0  0  0
   -4.6328    0.5657  -17.2016 H   0  0  0  0  0  0  0  0  0  0  0  0
   -7.7520   -1.6493  -18.7003 H   0  0  0  0  0  0  0  0  0  0  0  0
   -8.3050   -0.5060  -22.0659 C   0  0  0  0  0  0  0  0  0  0  0  0
   -8.4331    0.6942  -22.0717 O   0  0  0  0  0  0  0  0  0  0  0  0
   -8.7386   -3.6346  -22.7276 H   0  0  0  0  0  0  0  0  0  0  0  0
  -10.0639   -0.4274  -27.3425 H   0  0  0  0  0  0  0  0  0  0  0  0
   -7.9188   -1.4707  -28.1590 H   0  0  0  0  0  0  0  0  0  0  0  0
   -4.6298   -4.2554  -25.7789 H   0  0  0  0  0  0  0  0  0  0  0  0
   -6.1613   -4.8011  -26.2154 H   0  0  0  0  0  0  0  0  0  0  0  0
  1  2  1  0
  2  3  2  0
  2  4  2  0
  2  5  1  0
  5  6  2  0
  6  7  1  0
  7  8  2  0
  8  9  1  0
  9 10  2  0
 10 11  1  0
  9 12  1  0
 12 13  1  0
 13 14  1  0
 14 15  1  0
 14 16  1  0
 14 17  1  0
 13 18  1  0
 13 19  1  0
 12 20  1  1
 20 21  1  0
 21 22  2  0
 21 23  1  0
 23 24  1  0
 24 25  2  0
 25 26  1  0
 26 27  2  0
 27 28  1  0
 28 29  2  0
 29 30  1  0
 30 31  2  0
 31 32  1  0
 32 33  2  0
 32 34  1  0
 31 35  1  0
 30 36  1  0
 29 37  1  0
 27 38  1  0
 25 39  1  0
 23 40  1  0
 40 41  2  0
 20 42  1  0
  7 43  1  0
  6 44  1  0
  1 45  1  0
  1 46  1  0
 10  5  1  0
 40 12  1  0
 15  8  1  0
 33 24  1  0
 33 28  1  0
M  END
>  <cnnaffinities>  (81) 
[5.28119, 5.47709, 5.47681, 5.23094]

>  <score>  (81) 
5.28119

>  <index>  (81) 
83

>  <Smiles>  (81) 
N(S(=O)(=O)c1c(c(c2c(c1[H])[C@@]1(C(C(O2)([H])[H])([H])[H])N(C(=O)N(c2c(nc(c3c(c(c(c(c23)[H])[H])[H])[H])[H])[H])C1=O)[H])[H])[H])([H])[H]

>  <h>  (81) 
<NA>

>  <Training>  (81) 
True

>  <Success>  (81) 
True

>  <enamine_searched>  (81) 
False

>  <enamine_id>  (81) 
nan

$$$$

     RDKit          3D

 63 68  0  0  0  0  0  0  0  0999 V2000
   -8.2325   -3.6437  -23.9404 C   0  0  0  0  0  0  0  0  0  0  0  0
   -8.4080   -2.9019  -22.6203 C   0  0  1  0  0  0  0  0  0  0  0  0
   -7.0812   -2.4539  -21.9774 C   0  0  0  0  0  0  0  0  0  0  0  0
   -7.4743   -1.3040  -21.1886 N   0  0  0  0  0  0  0  0  0  0  0  0
   -6.6750   -0.7370  -20.1601 C   0  0  0  0  0  0  0  0  0  0  0  0
   -6.9541   -1.0217  -18.8466 C   0  0  0  0  0  0  0  0  0  0  0  0
   -6.2301   -0.5695  -17.7930 N   0  0  0  0  0  0  0  0  0  0  0  0
   -5.1944    0.1922  -18.0512 C   0  0  0  0  0  0  0  0  0  0  0  0
   -4.7828    0.5593  -19.3658 C   0  0  0  0  0  0  0  0  0  0  0  0
   -3.6623    1.4023  -19.5922 C   0  0  0  0  0  0  0  0  0  0  0  0
   -3.3268    1.7834  -20.8647 C   0  0  0  0  0  0  0  0  0  0  0  0
   -4.1006    1.3531  -21.9625 C   0  0  0  0  0  0  0  0  0  0  0  0
   -5.1785    0.5152  -21.7689 C   0  0  0  0  0  0  0  0  0  0  0  0
   -5.5492    0.0947  -20.4610 C   0  0  0  0  0  0  0  0  0  0  0  0
   -5.7919    0.2349  -22.6208 H   0  0  0  0  0  0  0  0  0  0  0  0
   -3.8398    1.6771  -22.9672 H   0  0  0  0  0  0  0  0  0  0  0  0
   -2.4720    2.4323  -21.0369 H   0  0  0  0  0  0  0  0  0  0  0  0
   -3.1031    1.7550  -18.7294 H   0  0  0  0  0  0  0  0  0  0  0  0
   -4.6220    0.5699  -17.2022 H   0  0  0  0  0  0  0  0  0  0  0  0
   -7.7983   -1.6629  -18.6013 H   0  0  0  0  0  0  0  0  0  0  0  0
   -8.6876   -0.7625  -21.5550 C   0  0  0  0  0  0  0  0  0  0  0  0
   -9.1536    0.2541  -21.0760 O   0  0  0  0  0  0  0  0  0  0  0  0
   -9.3078   -1.6313  -22.6843 C   0  0  1  0  0  0  0  0  0  0  0  0
   -9.1426   -0.8974  -24.0490 C   0  0  0  0  0  0  0  0  0  0  0  0
   -9.9961    0.2750  -24.1705 N   0  0  0  0  0  0  0  0  0  0  0  0
   -9.4788    1.4192  -24.9149 C   0  0  0  0  0  0  0  0  0  0  0  0
   -8.2358    1.9291  -24.1802 C   0  0  0  0  0  0  0  0  0  0  0  0
   -7.0980    1.5798  -24.4528 O   0  0  0  0  0  0  0  0  0  0  0  0
   -8.5458    2.7265  -23.1233 N   0  0  0  0  0  0  0  0  0  0  0  0
   -7.5868    3.0194  -22.0816 C   0  0  0  0  0  0  0  0  0  0  0  0
   -6.8931    4.3475  -22.2210 C   0  0  0  0  0  0  0  0  0  0  0  0
   -6.2169    4.4251  -23.4161 F   0  0  0  0  0  0  0  0  0  0  0  0
   -6.2252    5.0174  -21.0751 C   0  0  0  0  0  0  0  0  0  0  0  0
   -7.4403    5.6442  -21.7252 C   0  0  0  0  0  0  0  0  0  0  0  0
   -8.3839    5.6686  -21.1812 H   0  0  0  0  0  0  0  0  0  0  0  0
   -7.2429    6.4955  -22.3711 H   0  0  0  0  0  0  0  0  0  0  0  0
   -6.3442    4.5829  -20.0878 H   0  0  0  0  0  0  0  0  0  0  0  0
   -5.2695    5.4789  -21.2949 H   0  0  0  0  0  0  0  0  0  0  0  0
   -6.8379    2.2314  -22.0896 H   0  0  0  0  0  0  0  0  0  0  0  0
   -8.1170    2.9416  -21.1355 H   0  0  0  0  0  0  0  0  0  0  0  0
   -9.5203    2.8549  -22.8929 H   0  0  0  0  0  0  0  0  0  0  0  0
   -9.2454    1.1458  -25.9517 H   0  0  0  0  0  0  0  0  0  0  0  0
  -10.2625    2.1804  -24.9252 H   0  0  0  0  0  0  0  0  0  0  0  0
  -11.2880    0.2867  -23.7321 C   0  0  0  0  0  0  0  0  0  0  0  0
  -12.0585    1.2057  -23.9837 O   0  0  0  0  0  0  0  0  0  0  0  0
  -11.7197   -0.8947  -22.9090 C   0  0  0  0  0  0  0  0  0  0  0  0
  -13.0758   -0.9803  -22.5908 C   0  0  0  0  0  0  0  0  0  0  0  0
  -13.5541   -2.0241  -21.8299 C   0  0  0  0  0  0  0  0  0  0  0  0
  -12.6562   -3.0026  -21.4257 C   0  0  0  0  0  0  0  0  0  0  0  0
  -13.1196   -4.0109  -20.6671 F   0  0  0  0  0  0  0  0  0  0  0  0
  -11.3106   -2.9531  -21.7407 C   0  0  0  0  0  0  0  0  0  0  0  0
  -10.8017   -1.8599  -22.4611 C   0  0  0  0  0  0  0  0  0  0  0  0
  -10.6824   -3.7620  -21.3850 H   0  0  0  0  0  0  0  0  0  0  0  0
  -14.5984   -2.1018  -21.5525 H   0  0  0  0  0  0  0  0  0  0  0  0
  -13.7407   -0.2071  -22.9591 H   0  0  0  0  0  0  0  0  0  0  0  0
   -9.3746   -1.5872  -24.8717 H   0  0  0  0  0  0  0  0  0  0  0  0
   -8.1053   -0.5677  -24.1581 H   0  0  0  0  0  0  0  0  0  0  0  0
   -6.3294   -2.1827  -22.7354 H   0  0  0  0  0  0  0  0  0  0  0  0
   -6.6411   -3.2322  -21.3429 H   0  0  0  0  0  0  0  0  0  0  0  0
   -8.8701   -3.5794  -21.8992 H   0  0  0  0  0  0  0  0  0  0  0  0
   -7.6799   -3.0301  -24.6611 H   0  0  0  0  0  0  0  0  0  0  0  0
   -7.6762   -4.5757  -23.8069 H   0  0  0  0  0  0  0  0  0  0  0  0
   -9.2056   -3.8838  -24.3833 H   0  0  0  0  0  0  0  0  0  0  0  0
  1  2  1  0
  2  3  1  0
  3  4  1  0
  4  5  1  0
  5  6  2  0
  6  7  1  0
  7  8  2  0
  8  9  1  0
  9 10  2  0
 10 11  1  0
 11 12  2  0
 12 13  1  0
 13 14  2  0
 13 15  1  0
 12 16  1  0
 11 17  1  0
 10 18  1  0
  8 19  1  0
  6 20  1  0
  4 21  1  0
 21 22  2  0
 21 23  1  0
 23 24  1  6
 24 25  1  0
 25 26  1  0
 26 27  1  0
 27 28  2  0
 27 29  1  0
 29 30  1  0
 30 31  1  0
 31 32  1  0
 31 33  1  0
 33 34  1  0
 34 35  1  0
 34 36  1  0
 33 37  1  0
 33 38  1  0
 30 39  1  0
 30 40  1  0
 29 41  1  0
 26 42  1  0
 26 43  1  0
 25 44  1  0
 44 45  2  0
 44 46  1  0
 46 47  2  0
 47 48  1  0
 48 49  2  0
 49 50  1  0
 49 51  1  0
 51 52  2  0
 51 53  1  0
 48 54  1  0
 47 55  1  0
 24 56  1  0
 24 57  1  0
  3 58  1  0
  3 59  1  0
  2 60  1  1
  1 61  1  0
  1 62  1  0
  1 63  1  0
 23  2  1  0
 34 31  1  0
 52 46  1  0
 14  5  1  0
 52 23  1  0
 14  9  1  0
M  END
>  <cnnaffinities>  (82) 
[6.46014]

>  <score>  (82) 
6.46014

>  <index>  (82) 
84

>  <Smiles>  (82) 
C([C@]1(C(N(c2c(nc(c3c(c(c(c(c23)[H])[H])[H])[H])[H])[H])C(=O)[C@]21C(N(C(C(=O)N(C(C1(F)C(C1([H])[H])([H])[H])([H])[H])[H])([H])[H])C(=O)c1c(c(c(F)c(c21)[H])[H])[H])([H])[H])([H])[H])[H])([H])([H])[H]

>  <h>  (82) 
<NA>

>  <Training>  (82) 
True

>  <Success>  (82) 
True

>  <enamine_searched>  (82) 
False

>  <enamine_id>  (82) 
nan

$$$$

     RDKit          3D

 57 62  0  0  0  0  0  0  0  0999 V2000
   -6.7690    3.5705  -23.2264 C   0  0  0  0  0  0  0  0  0  0  0  0
   -7.6521    2.9319  -24.1850 N   0  0  0  0  0  0  0  0  0  0  0  0
   -7.2219    1.8133  -24.8229 C   0  0  0  0  0  0  0  0  0  0  0  0
   -6.0715    1.3998  -24.7393 O   0  0  0  0  0  0  0  0  0  0  0  0
   -8.2804    1.0990  -25.6660 C   0  0  0  0  0  0  0  0  0  0  0  0
   -9.1367    0.2708  -24.8472 N   0  0  0  0  0  0  0  0  0  0  0  0
   -8.6894   -1.0672  -24.4907 C   0  0  0  0  0  0  0  0  0  0  0  0
   -9.0144   -1.4270  -23.0192 C   0  0  2  0  0  0  0  0  0  0  0  0
   -8.1823   -0.5270  -22.0776 C   0  0  0  0  0  0  0  0  0  0  0  0
   -8.2028    0.6882  -22.0526 O   0  0  0  0  0  0  0  0  0  0  0  0
   -7.4287   -1.3137  -21.2268 N   0  0  0  0  0  0  0  0  0  0  0  0
   -6.6321   -0.7709  -20.1906 C   0  0  0  0  0  0  0  0  0  0  0  0
   -6.9058   -1.0697  -18.8779 C   0  0  0  0  0  0  0  0  0  0  0  0
   -6.2121   -0.5866  -17.8204 N   0  0  0  0  0  0  0  0  0  0  0  0
   -5.1989    0.2069  -18.0765 C   0  0  0  0  0  0  0  0  0  0  0  0
   -4.7862    0.5746  -19.3884 C   0  0  0  0  0  0  0  0  0  0  0  0
   -3.6449    1.3931  -19.6086 C   0  0  0  0  0  0  0  0  0  0  0  0
   -3.2719    1.7423  -20.8777 C   0  0  0  0  0  0  0  0  0  0  0  0
   -4.0397    1.3052  -21.9807 C   0  0  0  0  0  0  0  0  0  0  0  0
   -5.1220    0.4788  -21.7968 C   0  0  0  0  0  0  0  0  0  0  0  0
   -5.5276    0.0911  -20.4874 C   0  0  0  0  0  0  0  0  0  0  0  0
   -5.6530    0.1059  -22.6660 H   0  0  0  0  0  0  0  0  0  0  0  0
   -3.7653    1.6009  -22.9907 H   0  0  0  0  0  0  0  0  0  0  0  0
   -2.3874    2.3507  -21.0423 H   0  0  0  0  0  0  0  0  0  0  0  0
   -3.0860    1.7380  -18.7444 H   0  0  0  0  0  0  0  0  0  0  0  0
   -4.6386    0.5865  -17.2237 H   0  0  0  0  0  0  0  0  0  0  0  0
   -7.7511   -1.7121  -18.6363 H   0  0  0  0  0  0  0  0  0  0  0  0
   -7.7063   -2.7321  -21.3539 C   0  0  0  0  0  0  0  0  0  0  0  0
   -8.5533   -2.8388  -22.6171 C   0  0  0  0  0  0  0  0  0  0  0  0
   -9.4419   -4.0381  -22.8035 C   0  0  0  0  0  0  0  0  0  0  0  0
   -8.1977   -3.8998  -23.6253 C   0  0  0  0  0  0  0  0  0  0  0  0
   -8.2990   -3.6655  -24.6807 H   0  0  0  0  0  0  0  0  0  0  0  0
   -7.3589   -4.5516  -23.3979 H   0  0  0  0  0  0  0  0  0  0  0  0
   -9.4784   -4.7976  -22.0190 H   0  0  0  0  0  0  0  0  0  0  0  0
  -10.3936   -3.8687  -23.3022 H   0  0  0  0  0  0  0  0  0  0  0  0
   -6.7732   -3.2981  -21.4461 H   0  0  0  0  0  0  0  0  0  0  0  0
   -8.2626   -3.1093  -20.4872 H   0  0  0  0  0  0  0  0  0  0  0  0
  -10.5094   -1.1523  -22.8549 C   0  0  0  0  0  0  0  0  0  0  0  0
  -11.3249   -1.9267  -22.0408 C   0  0  0  0  0  0  0  0  0  0  0  0
  -12.6889   -1.7007  -21.9705 C   0  0  0  0  0  0  0  0  0  0  0  0
  -13.6192   -2.7764  -20.9795 Cl  0  0  0  0  0  0  0  0  0  0  0  0
  -13.2967   -0.6117  -22.5861 C   0  0  0  0  0  0  0  0  0  0  0  0
  -12.4695    0.2158  -23.3268 C   0  0  0  0  0  0  0  0  0  0  0  0
  -11.1227   -0.0780  -23.5130 C   0  0  0  0  0  0  0  0  0  0  0  0
  -10.3550    0.7664  -24.4826 C   0  0  0  0  0  0  0  0  0  0  0  0
  -10.7750    1.8377  -24.9114 O   0  0  0  0  0  0  0  0  0  0  0  0
  -12.8202    1.1248  -23.7883 H   0  0  0  0  0  0  0  0  0  0  0  0
  -14.3628   -0.4324  -22.4685 H   0  0  0  0  0  0  0  0  0  0  0  0
  -10.8964   -2.6974  -21.4219 H   0  0  0  0  0  0  0  0  0  0  0  0
   -9.1978   -1.7924  -25.1370 H   0  0  0  0  0  0  0  0  0  0  0  0
   -7.6076   -1.1351  -24.6428 H   0  0  0  0  0  0  0  0  0  0  0  0
   -8.9314    1.8220  -26.1613 H   0  0  0  0  0  0  0  0  0  0  0  0
   -7.7694    0.4762  -26.4046 H   0  0  0  0  0  0  0  0  0  0  0  0
   -8.6475    3.0810  -24.0882 H   0  0  0  0  0  0  0  0  0  0  0  0
   -7.2818    4.4049  -22.7422 H   0  0  0  0  0  0  0  0  0  0  0  0
   -6.4462    2.8506  -22.4620 H   0  0  0  0  0  0  0  0  0  0  0  0
   -5.8793    3.9487  -23.7382 H   0  0  0  0  0  0  0  0  0  0  0  0
  1  2  1  0
  2  3  1  0
  3  4  2  0
  3  5  1  0
  5  6  1  0
  6  7  1  0
  8  7  1  6
  8  9  1  0
  9 10  2  0
  9 11  1  0
 11 12  1  0
 12 13  2  0
 13 14  1  0
 14 15  2  0
 15 16  1  0
 16 17  2  0
 17 18  1  0
 18 19  2  0
 19 20  1  0
 20 21  2  0
 20 22  1  0
 19 23  1  0
 18 24  1  0
 17 25  1  0
 15 26  1  0
 13 27  1  0
 11 28  1  0
 28 29  1  0
 29 30  1  0
 30 31  1  0
 31 32  1  0
 31 33  1  0
 30 34  1  0
 30 35  1  0
 28 36  1  0
 28 37  1  0
  8 38  1  0
 38 39  2  0
 39 40  1  0
 40 41  1  0
 40 42  2  0
 42 43  1  0
 43 44  2  0
 44 45  1  0
 45 46  2  0
 43 47  1  0
 42 48  1  0
 39 49  1  0
  7 50  1  0
  7 51  1  0
  5 52  1  0
  5 53  1  0
  2 54  1  0
  1 55  1  0
  1 56  1  0
  1 57  1  0
 45  6  1  0
 29  8  1  0
 44 38  1  0
 21 12  1  0
 31 29  1  0
 21 16  1  0
M  END
>  <cnnaffinities>  (83) 
[5.23963]

>  <score>  (83) 
5.23963

>  <index>  (83) 
85

>  <Smiles>  (83) 
C(N(C(=O)C(N1C([C@@]2(C(=O)N(c3c(nc(c4c(c(c(c(c34)[H])[H])[H])[H])[H])[H])C(C32C(C3([H])[H])([H])[H])([H])[H])c2c(c(Cl)c(c(c2C1=O)[H])[H])[H])([H])[H])([H])[H])[H])([H])([H])[H]

>  <h>  (83) 
<NA>

>  <Training>  (83) 
True

>  <Success>  (83) 
True

>  <enamine_searched>  (83) 
False

>  <enamine_id>  (83) 
nan

$$$$

     RDKit          3D

 43 45  0  0  0  0  0  0  0  0999 V2000
   -8.5470   -5.5635  -25.7817 C   0  0  0  0  0  0  0  0  0  0  0  0
   -9.0632   -5.4493  -24.3445 C   0  0  1  0  0  0  0  0  0  0  0  0
   -8.0269   -5.8764  -23.3084 C   0  0  0  0  0  0  0  0  0  0  0  0
   -6.9382   -4.8326  -23.0940 C   0  0  0  0  0  0  0  0  0  0  0  0
   -7.5132   -3.5412  -22.7114 N   0  0  0  0  0  0  0  0  0  0  0  0
   -6.7551   -2.7459  -21.8630 C   0  0  0  0  0  0  0  0  0  0  0  0
   -5.6166   -3.0479  -21.5525 O   0  0  0  0  0  0  0  0  0  0  0  0
   -7.4123   -1.4756  -21.2696 C   0  0  0  0  0  0  0  0  0  0  0  0
   -6.5785   -0.8315  -20.1827 C   0  0  0  0  0  0  0  0  0  0  0  0
   -6.8727   -1.0489  -18.8638 C   0  0  0  0  0  0  0  0  0  0  0  0
   -6.1897   -0.5439  -17.8007 N   0  0  0  0  0  0  0  0  0  0  0  0
   -5.1575    0.2197  -18.0638 C   0  0  0  0  0  0  0  0  0  0  0  0
   -4.7229    0.5336  -19.3767 C   0  0  0  0  0  0  0  0  0  0  0  0
   -3.5940    1.3603  -19.6154 C   0  0  0  0  0  0  0  0  0  0  0  0
   -3.2175    1.6779  -20.8917 C   0  0  0  0  0  0  0  0  0  0  0  0
   -3.9835    1.2125  -21.9805 C   0  0  0  0  0  0  0  0  0  0  0  0
   -5.0686    0.3879  -21.7759 C   0  0  0  0  0  0  0  0  0  0  0  0
   -5.4635    0.0138  -20.4700 C   0  0  0  0  0  0  0  0  0  0  0  0
   -5.5396   -0.1007  -22.6232 H   0  0  0  0  0  0  0  0  0  0  0  0
   -3.6034    1.3599  -22.9877 H   0  0  0  0  0  0  0  0  0  0  0  0
   -2.3234    2.2731  -21.0809 H   0  0  0  0  0  0  0  0  0  0  0  0
   -3.0548    1.7659  -18.7604 H   0  0  0  0  0  0  0  0  0  0  0  0
   -4.6046    0.6280  -17.2137 H   0  0  0  0  0  0  0  0  0  0  0  0
   -7.7217   -1.6719  -18.5848 H   0  0  0  0  0  0  0  0  0  0  0  0
   -7.6222   -0.7489  -22.0680 H   0  0  0  0  0  0  0  0  0  0  0  0
   -8.3934   -1.7520  -20.8545 H   0  0  0  0  0  0  0  0  0  0  0  0
   -8.5392   -2.9981  -23.6122 C   0  0  1  0  0  0  0  0  0  0  0  0
   -7.9412   -2.2914  -24.8392 C   0  0  0  0  0  0  0  0  0  0  0  0
   -8.7287   -1.9766  -25.5353 H   0  0  0  0  0  0  0  0  0  0  0  0
   -7.2481   -2.9320  -25.3942 H   0  0  0  0  0  0  0  0  0  0  0  0
   -7.3898   -1.3880  -24.5499 H   0  0  0  0  0  0  0  0  0  0  0  0
   -9.5900   -4.0637  -23.9664 C   0  0  0  0  0  0  0  0  0  0  0  0
  -10.2123   -3.6825  -24.7835 H   0  0  0  0  0  0  0  0  0  0  0  0
  -10.2623   -4.1725  -23.1081 H   0  0  0  0  0  0  0  0  0  0  0  0
   -9.0794   -2.2370  -23.0428 H   0  0  0  0  0  0  0  0  0  0  0  0
   -6.3007   -4.7549  -23.9881 H   0  0  0  0  0  0  0  0  0  0  0  0
   -6.2734   -5.1444  -22.2898 H   0  0  0  0  0  0  0  0  0  0  0  0
   -7.5754   -6.8268  -23.6115 H   0  0  0  0  0  0  0  0  0  0  0  0
   -8.5230   -6.0623  -22.3510 H   0  0  0  0  0  0  0  0  0  0  0  0
   -9.9158   -6.1412  -24.2751 H   0  0  0  0  0  0  0  0  0  0  0  0
   -7.5999   -5.0389  -25.9393 H   0  0  0  0  0  0  0  0  0  0  0  0
   -8.3801   -6.6149  -26.0500 H   0  0  0  0  0  0  0  0  0  0  0  0
   -9.2686   -5.1519  -26.4971 H   0  0  0  0  0  0  0  0  0  0  0  0
  1  2  1  0
  2  3  1  0
  3  4  1  0
  4  5  1  0
  5  6  1  0
  6  7  2  0
  6  8  1  0
  8  9  1  0
  9 10  2  0
 10 11  1  0
 11 12  2  0
 12 13  1  0
 13 14  2  0
 14 15  1  0
 15 16  2  0
 16 17  1  0
 17 18  2  0
 17 19  1  0
 16 20  1  0
 15 21  1  0
 14 22  1  0
 12 23  1  0
 10 24  1  0
  8 25  1  0
  8 26  1  0
  5 27  1  0
 27 28  1  0
 28 29  1  0
 28 30  1  0
 28 31  1  0
 27 32  1  0
 32 33  1  0
 32 34  1  0
 27 35  1  1
  4 36  1  0
  4 37  1  0
  3 38  1  0
  3 39  1  0
  2 40  1  6
  1 41  1  0
  1 42  1  0
  1 43  1  0
 32  2  1  0
 18  9  1  0
 18 13  1  0
M  END
>  <cnnaffinities>  (84) 
[4.86823, 4.46672, 4.66087, 4.76018]

>  <score>  (84) 
4.86823

>  <index>  (84) 
86

>  <Smiles>  (84) 
C([C@]1(C(C(N(C(=O)C(c2c(nc(c3c(c(c(c(c23)[H])[H])[H])[H])[H])[H])([H])[H])[C@@](C([H])([H])[H])(C1([H])[H])[H])([H])[H])([H])[H])[H])([H])([H])[H]

>  <h>  (84) 
<NA>

>  <Training>  (84) 
True

>  <Success>  (84) 
True

>  <enamine_searched>  (84) 
False

>  <enamine_id>  (84) 
nan

$$$$

     RDKit          3D

 59 64  0  0  0  0  0  0  0  0999 V2000
   -8.4380   -4.1980  -23.5609 C   0  0  0  0  0  0  0  0  0  0  0  0
   -8.6355   -3.2228  -22.4069 C   0  0  1  0  0  0  0  0  0  0  0  0
   -7.3222   -2.5531  -21.9774 C   0  0  0  0  0  0  0  0  0  0  0  0
   -7.7813   -1.3955  -21.2425 N   0  0  0  0  0  0  0  0  0  0  0  0
   -7.0414   -0.7904  -20.2024 C   0  0  0  0  0  0  0  0  0  0  0  0
   -7.3001   -1.1212  -18.8991 C   0  0  0  0  0  0  0  0  0  0  0  0
   -6.5351   -0.7230  -17.8554 N   0  0  0  0  0  0  0  0  0  0  0  0
   -5.4935    0.0295  -18.1061 C   0  0  0  0  0  0  0  0  0  0  0  0
   -5.1444    0.4876  -19.4063 C   0  0  0  0  0  0  0  0  0  0  0  0
   -4.0293    1.3331  -19.6328 C   0  0  0  0  0  0  0  0  0  0  0  0
   -3.7718    1.8117  -20.8878 C   0  0  0  0  0  0  0  0  0  0  0  0
   -4.6085    1.4632  -21.9711 C   0  0  0  0  0  0  0  0  0  0  0  0
   -5.6719    0.6153  -21.7823 C   0  0  0  0  0  0  0  0  0  0  0  0
   -5.9587    0.0976  -20.4923 C   0  0  0  0  0  0  0  0  0  0  0  0
   -6.3179    0.3407  -22.6116 H   0  0  0  0  0  0  0  0  0  0  0  0
   -4.4120    1.8802  -22.9538 H   0  0  0  0  0  0  0  0  0  0  0  0
   -2.9276    2.4736  -21.0575 H   0  0  0  0  0  0  0  0  0  0  0  0
   -3.4079    1.6047  -18.7837 H   0  0  0  0  0  0  0  0  0  0  0  0
   -4.8717    0.3206  -17.2579 H   0  0  0  0  0  0  0  0  0  0  0  0
   -8.1484   -1.7594  -18.6534 H   0  0  0  0  0  0  0  0  0  0  0  0
   -9.0707   -1.0265  -21.5462 C   0  0  0  0  0  0  0  0  0  0  0  0
   -9.6250   -0.0440  -21.0979 O   0  0  0  0  0  0  0  0  0  0  0  0
   -9.6246   -2.0399  -22.5930 C   0  0  1  0  0  0  0  0  0  0  0  0
   -9.5125   -1.3538  -23.9725 C   0  0  0  0  0  0  0  0  0  0  0  0
  -10.3430   -0.1640  -23.9815 N   0  0  0  0  0  0  0  0  0  0  0  0
   -9.7852    1.1288  -24.3267 C   0  0  0  0  0  0  0  0  0  0  0  0
   -9.8924    1.4060  -25.7908 C   0  0  0  0  0  0  0  0  0  0  0  0
   -9.2028    0.8231  -26.8278 C   0  0  0  0  0  0  0  0  0  0  0  0
   -9.8150    1.3184  -27.9840 C   0  0  0  0  0  0  0  0  0  0  0  0
  -10.8065    2.1543  -27.6928 N   0  0  0  0  0  0  0  0  0  0  0  0
  -10.8336    2.2058  -26.3503 N   0  0  0  0  0  0  0  0  0  0  0  0
  -11.7932    3.0659  -25.6675 C   0  0  0  0  0  0  0  0  0  0  0  0
  -11.2669    3.7795  -25.0226 H   0  0  0  0  0  0  0  0  0  0  0  0
  -12.4766    2.4615  -25.0629 H   0  0  0  0  0  0  0  0  0  0  0  0
  -12.3219    3.6037  -26.4548 H   0  0  0  0  0  0  0  0  0  0  0  0
   -9.5643    1.0894  -29.0083 H   0  0  0  0  0  0  0  0  0  0  0  0
   -8.4121    0.0921  -26.7732 H   0  0  0  0  0  0  0  0  0  0  0  0
  -10.2926    1.8985  -23.7306 H   0  0  0  0  0  0  0  0  0  0  0  0
   -8.7317    1.1122  -24.0228 H   0  0  0  0  0  0  0  0  0  0  0  0
  -11.6660   -0.2326  -23.6755 C   0  0  0  0  0  0  0  0  0  0  0  0
  -12.4957    0.5655  -24.1064 O   0  0  0  0  0  0  0  0  0  0  0  0
  -12.0293   -1.3062  -22.7084 C   0  0  0  0  0  0  0  0  0  0  0  0
  -13.3151   -1.2689  -22.1744 C   0  0  0  0  0  0  0  0  0  0  0  0
  -13.7353   -2.2428  -21.2920 C   0  0  0  0  0  0  0  0  0  0  0  0
  -12.8552   -3.2865  -21.0236 C   0  0  0  0  0  0  0  0  0  0  0  0
  -13.2516   -4.2460  -20.1716 F   0  0  0  0  0  0  0  0  0  0  0  0
  -11.5794   -3.3509  -21.5575 C   0  0  0  0  0  0  0  0  0  0  0  0
  -11.1007   -2.2901  -22.3304 C   0  0  0  0  0  0  0  0  0  0  0  0
  -10.9373   -4.1867  -21.3055 H   0  0  0  0  0  0  0  0  0  0  0  0
  -14.7183   -2.2335  -20.8341 H   0  0  0  0  0  0  0  0  0  0  0  0
  -13.9677   -0.4499  -22.4487 H   0  0  0  0  0  0  0  0  0  0  0  0
   -9.8263   -2.0485  -24.7650 H   0  0  0  0  0  0  0  0  0  0  0  0
   -8.4763   -1.0595  -24.1727 H   0  0  0  0  0  0  0  0  0  0  0  0
   -6.7212   -2.2683  -22.8574 H   0  0  0  0  0  0  0  0  0  0  0  0
   -6.7052   -3.1961  -21.3436 H   0  0  0  0  0  0  0  0  0  0  0  0
   -8.9940   -3.7733  -21.5312 H   0  0  0  0  0  0  0  0  0  0  0  0
   -9.3560   -4.7470  -23.7921 H   0  0  0  0  0  0  0  0  0  0  0  0
   -7.6619   -4.9264  -23.3007 H   0  0  0  0  0  0  0  0  0  0  0  0
   -8.1052   -3.6846  -24.4700 H   0  0  0  0  0  0  0  0  0  0  0  0
  1  2  1  0
  2  3  1  0
  3  4  1  0
  4  5  1  0
  5  6  2  0
  6  7  1  0
  7  8  2  0
  8  9  1  0
  9 10  2  0
 10 11  1  0
 11 12  2  0
 12 13  1  0
 13 14  2  0
 13 15  1  0
 12 16  1  0
 11 17  1  0
 10 18  1  0
  8 19  1  0
  6 20  1  0
  4 21  1  0
 21 22  2  0
 21 23  1  0
 23 24  1  6
 24 25  1  0
 25 26  1  0
 26 27  1  0
 27 28  2  0
 28 29  1  0
 29 30  2  0
 30 31  1  0
 31 32  1  0
 32 33  1  0
 32 34  1  0
 32 35  1  0
 29 36  1  0
 28 37  1  0
 26 38  1  0
 26 39  1  0
 25 40  1  0
 40 41  2  0
 40 42  1  0
 42 43  2  0
 43 44  1  0
 44 45  2  0
 45 46  1  0
 45 47  1  0
 47 48  2  0
 47 49  1  0
 44 50  1  0
 43 51  1  0
 24 52  1  0
 24 53  1  0
  3 54  1  0
  3 55  1  0
  2 56  1  1
  1 57  1  0
  1 58  1  0
  1 59  1  0
 23  2  1  0
 31 27  1  0
 48 42  1  0
 14  5  1  0
 48 23  1  0
 14  9  1  0
M  END
>  <cnnaffinities>  (85) 
[6.26404]

>  <score>  (85) 
6.26404

>  <index>  (85) 
87

>  <Smiles>  (85) 
C([C@]1(C(N(c2c(nc(c3c(c(c(c(c23)[H])[H])[H])[H])[H])[H])C(=O)[C@]21C(N(C(c1c(c(nn1C([H])([H])[H])[H])[H])([H])[H])C(=O)c1c(c(c(F)c(c21)[H])[H])[H])([H])[H])([H])[H])[H])([H])([H])[H]

>  <h>  (85) 
<NA>

>  <Training>  (85) 
True

>  <Success>  (85) 
True

>  <enamine_searched>  (85) 
False

>  <enamine_id>  (85) 
nan

$$$$

     RDKit          3D

 40 42  0  0  0  0  0  0  0  0999 V2000
   -5.4485   -1.6665  -23.5926 O   0  0  0  0  0  0  0  0  0  0  0  0
   -5.7785   -2.2445  -22.5674 C   0  0  0  0  0  0  0  0  0  0  0  0
   -6.8777   -1.6753  -21.6472 C   0  0  0  0  0  0  0  0  0  0  0  0
   -6.3369   -0.9604  -20.4269 C   0  0  0  0  0  0  0  0  0  0  0  0
   -6.7125   -1.3170  -19.1554 C   0  0  0  0  0  0  0  0  0  0  0  0
   -6.2287   -0.7682  -18.0112 N   0  0  0  0  0  0  0  0  0  0  0  0
   -5.3132    0.1634  -18.1371 C   0  0  0  0  0  0  0  0  0  0  0  0
   -4.8493    0.6463  -19.3872 C   0  0  0  0  0  0  0  0  0  0  0  0
   -3.8326    1.6290  -19.4765 C   0  0  0  0  0  0  0  0  0  0  0  0
   -3.4532    2.1275  -20.6935 C   0  0  0  0  0  0  0  0  0  0  0  0
   -4.0952    1.6757  -21.8672 C   0  0  0  0  0  0  0  0  0  0  0  0
   -5.0719    0.7128  -21.8114 C   0  0  0  0  0  0  0  0  0  0  0  0
   -5.4256    0.1262  -20.5647 C   0  0  0  0  0  0  0  0  0  0  0  0
   -5.5318    0.3500  -22.7222 H   0  0  0  0  0  0  0  0  0  0  0  0
   -3.8075    2.0903  -22.8283 H   0  0  0  0  0  0  0  0  0  0  0  0
   -2.6866    2.8937  -20.7625 H   0  0  0  0  0  0  0  0  0  0  0  0
   -3.3817    1.9795  -18.5539 H   0  0  0  0  0  0  0  0  0  0  0  0
   -4.8963    0.5871  -17.2222 H   0  0  0  0  0  0  0  0  0  0  0  0
   -7.4622   -2.0955  -18.9999 H   0  0  0  0  0  0  0  0  0  0  0  0
   -7.4874   -0.9931  -22.2547 H   0  0  0  0  0  0  0  0  0  0  0  0
   -7.5588   -2.4763  -21.3373 H   0  0  0  0  0  0  0  0  0  0  0  0
   -5.1630   -3.4009  -22.1825 N   0  0  0  0  0  0  0  0  0  0  0  0
   -4.1510   -3.9813  -23.0556 C   0  0  0  0  0  0  0  0  0  0  0  0
   -4.4913   -5.4349  -23.3764 C   0  0  0  0  0  0  0  0  0  0  0  0
   -4.5681   -6.1795  -22.0488 C   0  0  0  0  0  0  0  0  0  0  0  0
   -4.6145   -7.6864  -22.2038 C   0  0  0  0  0  0  0  0  0  0  0  0
   -4.8962   -8.2674  -21.0003 F   0  0  0  0  0  0  0  0  0  0  0  0
   -3.3607   -8.0957  -22.5846 F   0  0  0  0  0  0  0  0  0  0  0  0
   -5.3309   -8.0599  -22.9473 H   0  0  0  0  0  0  0  0  0  0  0  0
   -5.6604   -5.5669  -21.1784 C   0  0  0  0  0  0  0  0  0  0  0  0
   -5.3426   -4.0943  -20.9239 C   0  0  0  0  0  0  0  0  0  0  0  0
   -4.4259   -4.0147  -20.3255 H   0  0  0  0  0  0  0  0  0  0  0  0
   -6.1109   -3.5921  -20.3437 H   0  0  0  0  0  0  0  0  0  0  0  0
   -5.7150   -6.0705  -20.2129 H   0  0  0  0  0  0  0  0  0  0  0  0
   -6.6295   -5.6831  -21.6865 H   0  0  0  0  0  0  0  0  0  0  0  0
   -3.6063   -6.0269  -21.5660 H   0  0  0  0  0  0  0  0  0  0  0  0
   -5.4537   -5.4943  -23.9035 H   0  0  0  0  0  0  0  0  0  0  0  0
   -3.7176   -5.8739  -24.0175 H   0  0  0  0  0  0  0  0  0  0  0  0
   -3.1902   -3.9552  -22.5199 H   0  0  0  0  0  0  0  0  0  0  0  0
   -4.0880   -3.3484  -23.9392 H   0  0  0  0  0  0  0  0  0  0  0  0
  1  2  2  0
  2  3  1  0
  3  4  1  0
  4  5  2  0
  5  6  1  0
  6  7  2  0
  7  8  1  0
  8  9  2  0
  9 10  1  0
 10 11  2  0
 11 12  1  0
 12 13  2  0
 12 14  1  0
 11 15  1  0
 10 16  1  0
  9 17  1  0
  7 18  1  0
  5 19  1  0
  3 20  1  0
  3 21  1  0
  2 22  1  0
 22 23  1  0
 23 24  1  0
 24 25  1  0
 25 26  1  0
 26 27  1  0
 26 28  1  0
 26 29  1  0
 25 30  1  0
 30 31  1  0
 31 32  1  0
 31 33  1  0
 30 34  1  0
 30 35  1  0
 25 36  1  0
 24 37  1  0
 24 38  1  0
 23 39  1  0
 23 40  1  0
 13  4  1  0
 31 22  1  0
 13  8  1  0
M  END
>  <cnnaffinities>  (86) 
[3.8731, 4.39304, 4.434, 4.43413, 4.43421]

>  <score>  (86) 
3.8731

>  <index>  (86) 
88

>  <Smiles>  (86) 
O=C(C(c1c(nc(c2c(c(c(c(c12)[H])[H])[H])[H])[H])[H])([H])[H])N1C(C(C(C(F)(F)[H])(C(C1([H])[H])([H])[H])[H])([H])[H])([H])[H]

>  <h>  (86) 
<NA>

>  <Training>  (86) 
True

>  <Success>  (86) 
True

>  <enamine_searched>  (86) 
False

>  <enamine_id>  (86) 
nan

$$$$

     RDKit          3D

 43 45  0  0  0  0  0  0  0  0999 V2000
   -6.1807   -4.3987  -27.1681 C   0  0  0  0  0  0  0  0  0  0  0  0
   -6.0120   -3.3628  -26.0550 C   0  0  0  0  0  0  0  0  0  0  0  0
   -5.3430   -2.1243  -26.6528 C   0  0  0  0  0  0  0  0  0  0  0  0
   -4.3659   -2.3754  -27.0750 H   0  0  0  0  0  0  0  0  0  0  0  0
   -5.9565   -1.7161  -27.4605 H   0  0  0  0  0  0  0  0  0  0  0  0
   -5.1859   -1.3217  -25.9312 H   0  0  0  0  0  0  0  0  0  0  0  0
   -5.1612   -3.9885  -24.9443 C   0  0  0  0  0  0  0  0  0  0  0  0
   -5.0955   -3.1380  -23.6941 C   0  0  0  0  0  0  0  0  0  0  0  0
   -6.4116   -2.7407  -23.2236 N   0  0  0  0  0  0  0  0  0  0  0  0
   -6.5078   -2.6345  -21.8511 C   0  0  0  0  0  0  0  0  0  0  0  0
   -5.8858   -3.3814  -21.1153 O   0  0  0  0  0  0  0  0  0  0  0  0
   -7.3642   -1.5010  -21.2774 C   0  0  0  0  0  0  0  0  0  0  0  0
   -6.6253   -0.7742  -20.1803 C   0  0  0  0  0  0  0  0  0  0  0  0
   -6.8960   -1.0472  -18.8668 C   0  0  0  0  0  0  0  0  0  0  0  0
   -6.2058   -0.5744  -17.7941 N   0  0  0  0  0  0  0  0  0  0  0  0
   -5.2003    0.2280  -18.0529 C   0  0  0  0  0  0  0  0  0  0  0  0
   -4.8034    0.6084  -19.3648 C   0  0  0  0  0  0  0  0  0  0  0  0
   -3.6546    1.4110  -19.5829 C   0  0  0  0  0  0  0  0  0  0  0  0
   -3.2837    1.7631  -20.8563 C   0  0  0  0  0  0  0  0  0  0  0  0
   -4.0747    1.3534  -21.9597 C   0  0  0  0  0  0  0  0  0  0  0  0
   -5.1588    0.5288  -21.7736 C   0  0  0  0  0  0  0  0  0  0  0  0
   -5.5401    0.1116  -20.4667 C   0  0  0  0  0  0  0  0  0  0  0  0
   -5.7228    0.1873  -22.6410 H   0  0  0  0  0  0  0  0  0  0  0  0
   -3.7998    1.6754  -22.9612 H   0  0  0  0  0  0  0  0  0  0  0  0
   -2.3968    2.3647  -21.0276 H   0  0  0  0  0  0  0  0  0  0  0  0
   -3.0651    1.7120  -18.7201 H   0  0  0  0  0  0  0  0  0  0  0  0
   -4.6257    0.5992  -17.2026 H   0  0  0  0  0  0  0  0  0  0  0  0
   -7.7274   -1.7070  -18.6211 H   0  0  0  0  0  0  0  0  0  0  0  0
   -8.2792   -1.9559  -20.8743 H   0  0  0  0  0  0  0  0  0  0  0  0
   -7.6467   -0.8218  -22.0863 H   0  0  0  0  0  0  0  0  0  0  0  0
   -7.3093   -2.1450  -24.2045 C   0  0  0  0  0  0  0  0  0  0  0  0
   -7.3848   -3.0213  -25.4595 C   0  0  0  0  0  0  0  0  0  0  0  0
   -8.0121   -2.5437  -26.2222 H   0  0  0  0  0  0  0  0  0  0  0  0
   -7.8711   -3.9625  -25.1903 H   0  0  0  0  0  0  0  0  0  0  0  0
   -6.9891   -1.1298  -24.4838 H   0  0  0  0  0  0  0  0  0  0  0  0
   -8.3026   -2.0480  -23.7628 H   0  0  0  0  0  0  0  0  0  0  0  0
   -4.6613   -3.6768  -22.8562 H   0  0  0  0  0  0  0  0  0  0  0  0
   -4.4749   -2.2441  -23.8643 H   0  0  0  0  0  0  0  0  0  0  0  0
   -4.1453   -4.1806  -25.3101 H   0  0  0  0  0  0  0  0  0  0  0  0
   -5.5991   -4.9596  -24.6937 H   0  0  0  0  0  0  0  0  0  0  0  0
   -5.2104   -4.6766  -27.5949 H   0  0  0  0  0  0  0  0  0  0  0  0
   -6.6449   -5.3136  -26.7877 H   0  0  0  0  0  0  0  0  0  0  0  0
   -6.8100   -4.0180  -27.9795 H   0  0  0  0  0  0  0  0  0  0  0  0
  1  2  1  0
  2  3  1  0
  3  4  1  0
  3  5  1  0
  3  6  1  0
  2  7  1  0
  7  8  1  0
  8  9  1  0
  9 10  1  0
 10 11  2  0
 10 12  1  0
 12 13  1  0
 13 14  2  0
 14 15  1  0
 15 16  2  0
 16 17  1  0
 17 18  2  0
 18 19  1  0
 19 20  2  0
 20 21  1  0
 21 22  2  0
 21 23  1  0
 20 24  1  0
 19 25  1  0
 18 26  1  0
 16 27  1  0
 14 28  1  0
 12 29  1  0
 12 30  1  0
  9 31  1  0
 31 32  1  0
 32 33  1  0
 32 34  1  0
 31 35  1  0
 31 36  1  0
  8 37  1  0
  8 38  1  0
  7 39  1  0
  7 40  1  0
  1 41  1  0
  1 42  1  0
  1 43  1  0
 32  2  1  0
 22 13  1  0
 22 17  1  0
M  END
>  <cnnaffinities>  (87) 
[4.52199, 4.45002, 4.45009, 4.45005, 4.45017]

>  <score>  (87) 
4.52199

>  <index>  (87) 
89

>  <Smiles>  (87) 
C(C1(C([H])([H])[H])C(C(N(C(=O)C(c2c(nc(c3c(c(c(c(c23)[H])[H])[H])[H])[H])[H])([H])[H])C(C1([H])[H])([H])[H])([H])[H])([H])[H])([H])([H])[H]

>  <h>  (87) 
<NA>

>  <Training>  (87) 
True

>  <Success>  (87) 
True

>  <enamine_searched>  (87) 
False

>  <enamine_id>  (87) 
nan

$$$$

     RDKit          3D

 64 68  0  0  0  0  0  0  0  0999 V2000
   -7.3060   -4.5292  -27.8329 C   0  0  0  0  0  0  0  0  0  0  0  0
   -7.9639   -3.4555  -27.1020 N   0  0  0  0  0  0  0  0  0  0  0  0
   -9.1902   -3.7000  -26.5488 C   0  0  0  0  0  0  0  0  0  0  0  0
   -9.6643   -4.8219  -26.5294 O   0  0  0  0  0  0  0  0  0  0  0  0
   -9.9139   -2.4918  -25.9420 C   0  0  0  0  0  0  0  0  0  0  0  0
  -10.0095   -2.5476  -24.4848 N   0  0  0  0  0  0  0  0  0  0  0  0
   -9.2640   -1.5748  -23.6673 C   0  0  0  0  0  0  0  0  0  0  0  0
   -8.8088   -2.1083  -22.2771 C   0  0  2  0  0  0  0  0  0  0  0  0
   -8.2381   -1.0005  -21.4034 C   0  0  0  0  0  0  0  0  0  0  0  0
   -8.8907   -0.1125  -20.8901 O   0  0  0  0  0  0  0  0  0  0  0  0
   -6.8918   -1.2162  -21.2301 N   0  0  0  0  0  0  0  0  0  0  0  0
   -6.2220   -0.6081  -20.1379 C   0  0  0  0  0  0  0  0  0  0  0  0
   -6.5474   -0.9361  -18.8446 C   0  0  0  0  0  0  0  0  0  0  0  0
   -5.8888   -0.4729  -17.7536 N   0  0  0  0  0  0  0  0  0  0  0  0
   -4.8891    0.3525  -17.9569 C   0  0  0  0  0  0  0  0  0  0  0  0
   -4.4714    0.8001  -19.2441 C   0  0  0  0  0  0  0  0  0  0  0  0
   -3.3890    1.7005  -19.4237 C   0  0  0  0  0  0  0  0  0  0  0  0
   -3.0771    2.1580  -20.6749 C   0  0  0  0  0  0  0  0  0  0  0  0
   -3.8309    1.7526  -21.7998 C   0  0  0  0  0  0  0  0  0  0  0  0
   -4.8719    0.8687  -21.6535 C   0  0  0  0  0  0  0  0  0  0  0  0
   -5.1872    0.3443  -20.3731 C   0  0  0  0  0  0  0  0  0  0  0  0
   -5.4639    0.5602  -22.5103 H   0  0  0  0  0  0  0  0  0  0  0  0
   -3.5866    2.1471  -22.7819 H   0  0  0  0  0  0  0  0  0  0  0  0
   -2.2572    2.8583  -20.8106 H   0  0  0  0  0  0  0  0  0  0  0  0
   -2.8368    2.0264  -18.5452 H   0  0  0  0  0  0  0  0  0  0  0  0
   -4.3614    0.7124  -17.0736 H   0  0  0  0  0  0  0  0  0  0  0  0
   -7.3733   -1.6141  -18.6402 H   0  0  0  0  0  0  0  0  0  0  0  0
   -6.3948   -2.3412  -22.0122 C   0  0  0  0  0  0  0  0  0  0  0  0
   -7.6657   -3.1689  -22.3066 C   0  0  2  0  0  0  0  0  0  0  0  0
   -7.6295   -4.0194  -23.5787 C   0  0  0  0  0  0  0  0  0  0  0  0
   -6.4662   -5.3708  -23.6152 S   0  0  0  0  0  0  0  0  0  0  0  0
   -6.6108   -6.0082  -24.9146 O   0  0  0  0  0  0  0  0  0  0  0  0
   -5.1782   -4.8964  -23.1358 O   0  0  0  0  0  0  0  0  0  0  0  0
   -7.0195   -6.4432  -22.4873 N   0  0  0  0  0  0  0  0  0  0  0  0
   -8.2995   -7.1023  -22.7245 C   0  0  0  0  0  0  0  0  0  0  0  0
   -8.2240   -7.6902  -23.6418 H   0  0  0  0  0  0  0  0  0  0  0  0
   -9.1441   -6.4016  -22.8161 H   0  0  0  0  0  0  0  0  0  0  0  0
   -8.4941   -7.7726  -21.8841 H   0  0  0  0  0  0  0  0  0  0  0  0
   -6.8255   -6.1298  -21.5457 H   0  0  0  0  0  0  0  0  0  0  0  0
   -7.3707   -3.4281  -24.4620 H   0  0  0  0  0  0  0  0  0  0  0  0
   -8.6149   -4.4637  -23.7412 H   0  0  0  0  0  0  0  0  0  0  0  0
   -7.8500   -3.8370  -21.4545 H   0  0  0  0  0  0  0  0  0  0  0  0
   -5.9432   -1.9883  -22.9511 H   0  0  0  0  0  0  0  0  0  0  0  0
   -5.6340   -2.9000  -21.4629 H   0  0  0  0  0  0  0  0  0  0  0  0
  -10.0598   -2.5423  -21.5310 C   0  0  0  0  0  0  0  0  0  0  0  0
  -10.4140   -3.8312  -21.5786 C   0  0  0  0  0  0  0  0  0  0  0  0
  -13.1835   -3.7197  -20.9203 C   0  0  0  0  0  0  0  0  0  0  0  0
  -13.9864   -4.5544  -20.2632 F   0  0  0  0  0  0  0  0  0  0  0  0
  -13.1532   -3.6332  -20.9478 C   0  0  0  0  0  0  0  0  0  0  0  0
  -12.7204   -3.5229  -22.2584 C   0  0  0  0  0  0  0  0  0  0  0  0
  -11.2353   -3.3506  -22.5081 C   0  0  0  0  0  0  0  0  0  0  0  0
  -11.0663   -3.2799  -23.9688 C   0  0  0  0  0  0  0  0  0  0  0  0
  -11.8782   -3.8525  -24.6628 O   0  0  0  0  0  0  0  0  0  0  0  0
  -13.1468   -4.4509  -22.3563 H   0  0  0  0  0  0  0  0  0  0  0  0
  -12.9112   -2.7537  -20.0719 H   0  0  0  0  0  0  0  0  0  0  0  0
  -10.4724   -1.8191  -20.8023 H   0  0  0  0  0  0  0  0  0  0  0  0
   -9.8876   -0.6972  -23.4678 H   0  0  0  0  0  0  0  0  0  0  0  0
   -8.3905   -1.2440  -24.2380 H   0  0  0  0  0  0  0  0  0  0  0  0
  -10.9275   -2.5117  -26.3506 H   0  0  0  0  0  0  0  0  0  0  0  0
   -9.4257   -1.5562  -26.2408 H   0  0  0  0  0  0  0  0  0  0  0  0
   -7.6941   -2.5031  -27.2902 H   0  0  0  0  0  0  0  0  0  0  0  0
   -6.2680   -4.2498  -28.0274 H   0  0  0  0  0  0  0  0  0  0  0  0
   -7.8094   -4.7501  -28.7836 H   0  0  0  0  0  0  0  0  0  0  0  0
   -7.3372   -5.4204  -27.2031 H   0  0  0  0  0  0  0  0  0  0  0  0
  1  2  1  0
  2  3  1  0
  3  4  2  0
  3  5  1  0
  5  6  1  0
  6  7  1  0
  8  7  1  6
  8  9  1  0
  9 10  2  0
  9 11  1  0
 11 12  1  0
 12 13  2  0
 13 14  1  0
 14 15  2  0
 15 16  1  0
 16 17  2  0
 17 18  1  0
 18 19  2  0
 19 20  1  0
 20 21  2  0
 20 22  1  0
 19 23  1  0
 18 24  1  0
 17 25  1  0
 15 26  1  0
 13 27  1  0
 11 28  1  0
 28 29  1  0
 29 30  1  0
 30 31  1  0
 31 32  2  0
 31 33  2  0
 31 34  1  0
 34 35  1  0
 35 36  1  0
 35 37  1  0
 35 38  1  0
 34 39  1  0
 30 40  1  0
 30 41  1  0
 29 42  1  1
 28 43  1  0
 28 44  1  0
  8 45  1  0
 45 46  2  0
 46 47  1  0
 47 48  1  0
 47 49  2  0
 49 50  1  0
 50 51  2  0
 51 52  1  0
 52 53  2  0
 50 54  1  0
 49 55  1  0
 46 56  1  0
  7 57  1  0
  7 58  1  0
  5 59  1  0
  5 60  1  0
  2 61  1  0
  1 62  1  0
  1 63  1  0
  1 64  1  0
 52  6  1  0
 29  8  1  0
 51 45  1  0
 21 12  1  0
 21 16  1  0
M  END
>  <cnnaffinities>  (88) 
[6.00046]

>  <score>  (88) 
6.00046

>  <index>  (88) 
90

>  <Smiles>  (88) 
C(N(C(=O)C(N1C([C@@]2(C(=O)N(c3c(nc(c4c(c(c(c(c34)[H])[H])[H])[H])[H])[H])C([C@@]2(C(S(=O)(=O)N(C([H])([H])[H])[H])([H])[H])[H])([H])[H])c2c(c(F)c(c(c2C1=O)[H])[H])[H])([H])[H])([H])[H])[H])([H])([H])[H]

>  <h>  (88) 
<NA>

>  <Training>  (88) 
True

>  <Success>  (88) 
True

>  <enamine_searched>  (88) 
False

>  <enamine_id>  (88) 
nan

$$$$

     RDKit          3D

 66 71  0  0  0  0  0  0  0  0999 V2000
   -7.4189    3.3991  -21.8956 C   0  0  0  0  0  0  0  0  0  0  0  0
   -8.3518    2.9154  -22.9074 N   0  0  0  0  0  0  0  0  0  0  0  0
   -7.8037    2.1741  -23.9217 C   0  0  0  0  0  0  0  0  0  0  0  0
   -6.5980    2.0108  -24.0484 O   0  0  0  0  0  0  0  0  0  0  0  0
   -8.7940    1.5534  -24.9045 C   0  0  0  0  0  0  0  0  0  0  0  0
   -9.4464    0.4049  -24.3103 N   0  0  0  0  0  0  0  0  0  0  0  0
   -8.6911   -0.8306  -24.1604 C   0  0  0  0  0  0  0  0  0  0  0  0
   -9.0643   -1.5678  -22.8513 C   0  0  2  0  0  0  0  0  0  0  0  0
   -8.5461   -0.7762  -21.6299 C   0  0  0  0  0  0  0  0  0  0  0  0
   -9.0375    0.2145  -21.1274 O   0  0  0  0  0  0  0  0  0  0  0  0
   -7.3918   -1.3752  -21.1915 N   0  0  0  0  0  0  0  0  0  0  0  0
   -6.6162   -0.7843  -20.1676 C   0  0  0  0  0  0  0  0  0  0  0  0
   -6.9237   -1.0423  -18.8585 C   0  0  0  0  0  0  0  0  0  0  0  0
   -6.2251   -0.5664  -17.7997 N   0  0  0  0  0  0  0  0  0  0  0  0
   -5.1997    0.2101  -18.0585 C   0  0  0  0  0  0  0  0  0  0  0  0
   -4.7859    0.5768  -19.3720 C   0  0  0  0  0  0  0  0  0  0  0  0
   -3.6493    1.3946  -19.6087 C   0  0  0  0  0  0  0  0  0  0  0  0
   -3.3054    1.7547  -20.8830 C   0  0  0  0  0  0  0  0  0  0  0  0
   -4.0864    1.3374  -21.9809 C   0  0  0  0  0  0  0  0  0  0  0  0
   -5.1706    0.5121  -21.7854 C   0  0  0  0  0  0  0  0  0  0  0  0
   -5.5289    0.0887  -20.4733 C   0  0  0  0  0  0  0  0  0  0  0  0
   -5.7613    0.1978  -22.6415 H   0  0  0  0  0  0  0  0  0  0  0  0
   -3.8313    1.6625  -22.9871 H   0  0  0  0  0  0  0  0  0  0  0  0
   -2.4272    2.3710  -21.0544 H   0  0  0  0  0  0  0  0  0  0  0  0
   -3.0741    1.7288  -18.7505 H   0  0  0  0  0  0  0  0  0  0  0  0
   -4.6209    0.5771  -17.2090 H   0  0  0  0  0  0  0  0  0  0  0  0
   -7.7797   -1.6739  -18.6308 H   0  0  0  0  0  0  0  0  0  0  0  0
   -7.0083   -2.5574  -21.9302 C   0  0  0  0  0  0  0  0  0  0  0  0
   -8.2927   -2.9158  -22.6998 C   0  0  2  0  0  0  0  0  0  0  0  0
   -8.0100   -3.7180  -23.9852 C   0  0  0  0  0  0  0  0  0  0  0  0
   -7.5004   -5.0539  -23.7498 N   0  0  0  0  0  0  0  0  0  0  0  0
   -6.1949   -5.3850  -23.4865 C   0  0  0  0  0  0  0  0  0  0  0  0
   -5.0783   -4.6095  -23.8896 C   0  0  0  0  0  0  0  0  0  0  0  0
   -3.8302   -4.9625  -23.6132 N   0  0  0  0  0  0  0  0  0  0  0  0
   -3.6637   -6.1040  -22.9415 C   0  0  0  0  0  0  0  0  0  0  0  0
   -4.7485   -6.8763  -22.5621 C   0  0  0  0  0  0  0  0  0  0  0  0
   -6.0053   -6.5346  -22.8370 N   0  0  0  0  0  0  0  0  0  0  0  0
   -4.6210   -7.8047  -22.0060 H   0  0  0  0  0  0  0  0  0  0  0  0
   -2.6455   -6.4077  -22.7091 H   0  0  0  0  0  0  0  0  0  0  0  0
   -5.2120   -3.6849  -24.4483 H   0  0  0  0  0  0  0  0  0  0  0  0
   -8.1499   -5.7540  -23.4133 H   0  0  0  0  0  0  0  0  0  0  0  0
   -7.2729   -3.1842  -24.5919 H   0  0  0  0  0  0  0  0  0  0  0  0
   -8.9145   -3.8040  -24.6014 H   0  0  0  0  0  0  0  0  0  0  0  0
   -8.8895   -3.5613  -22.0494 H   0  0  0  0  0  0  0  0  0  0  0  0
   -6.6883   -3.3496  -21.2474 H   0  0  0  0  0  0  0  0  0  0  0  0
   -6.1685   -2.3491  -22.6139 H   0  0  0  0  0  0  0  0  0  0  0  0
  -10.5735   -1.6512  -22.7826 C   0  0  0  0  0  0  0  0  0  0  0  0
  -11.1903   -2.5774  -21.9410 C   0  0  0  0  0  0  0  0  0  0  0  0
  -12.5662   -2.5926  -21.8194 C   0  0  0  0  0  0  0  0  0  0  0  0
  -13.2803   -3.7035  -20.6922 Cl  0  0  0  0  0  0  0  0  0  0  0  0
  -13.3850   -1.7169  -22.5308 C   0  0  0  0  0  0  0  0  0  0  0  0
  -12.7786   -0.7708  -23.3280 C   0  0  0  0  0  0  0  0  0  0  0  0
  -11.3920   -0.7179  -23.4307 C   0  0  0  0  0  0  0  0  0  0  0  0
  -10.8085    0.4178  -24.2042 C   0  0  0  0  0  0  0  0  0  0  0  0
  -11.4995    1.3103  -24.6725 O   0  0  0  0  0  0  0  0  0  0  0  0
  -13.3521   -0.0389  -23.8826 H   0  0  0  0  0  0  0  0  0  0  0  0
  -14.4642   -1.7830  -22.4433 H   0  0  0  0  0  0  0  0  0  0  0  0
  -10.6151   -3.2904  -21.3630 H   0  0  0  0  0  0  0  0  0  0  0  0
   -8.9093   -1.4974  -25.0047 H   0  0  0  0  0  0  0  0  0  0  0  0
   -7.6210   -0.5927  -24.1869 H   0  0  0  0  0  0  0  0  0  0  0  0
   -8.2404    1.2531  -25.8014 H   0  0  0  0  0  0  0  0  0  0  0  0
   -9.5778    2.2653  -25.1844 H   0  0  0  0  0  0  0  0  0  0  0  0
   -9.2821    2.6729  -22.5882 H   0  0  0  0  0  0  0  0  0  0  0  0
   -6.9200    2.5541  -21.3901 H   0  0  0  0  0  0  0  0  0  0  0  0
   -6.6570    4.0071  -22.3885 H   0  0  0  0  0  0  0  0  0  0  0  0
   -7.9308    4.0347  -21.1674 H   0  0  0  0  0  0  0  0  0  0  0  0
  1  2  1  0
  2  3  1  0
  3  4  2  0
  3  5  1  0
  5  6  1  0
  6  7  1  0
  8  7  1  6
  8  9  1  0
  9 10  2  0
  9 11  1  0
 11 12  1  0
 12 13  2  0
 13 14  1  0
 14 15  2  0
 15 16  1  0
 16 17  2  0
 17 18  1  0
 18 19  2  0
 19 20  1  0
 20 21  2  0
 20 22  1  0
 19 23  1  0
 18 24  1  0
 17 25  1  0
 15 26  1  0
 13 27  1  0
 11 28  1  0
 28 29  1  0
 29 30  1  0
 30 31  1  0
 31 32  1  0
 32 33  2  0
 33 34  1  0
 34 35  2  0
 35 36  1  0
 36 37  2  0
 36 38  1  0
 35 39  1  0
 33 40  1  0
 31 41  1  0
 30 42  1  0
 30 43  1  0
 29 44  1  1
 28 45  1  0
 28 46  1  0
  8 47  1  0
 47 48  2  0
 48 49  1  0
 49 50  1  0
 49 51  2  0
 51 52  1  0
 52 53  2  0
 53 54  1  0
 54 55  2  0
 52 56  1  0
 51 57  1  0
 48 58  1  0
  7 59  1  0
  7 60  1  0
  5 61  1  0
  5 62  1  0
  2 63  1  0
  1 64  1  0
  1 65  1  0
  1 66  1  0
 54  6  1  0
 29  8  1  0
 37 32  1  0
 53 47  1  0
 21 12  1  0
 21 16  1  0
M  END
>  <cnnaffinities>  (89) 
[6.6312, 6.59865]

>  <score>  (89) 
6.6312

>  <index>  (89) 
91

>  <Smiles>  (89) 
C(N(C(=O)C(N1C([C@@]2(C(=O)N(c3c(nc(c4c(c(c(c(c34)[H])[H])[H])[H])[H])[H])C([C@@]2(C(N(c2c(nc(c(n2)[H])[H])[H])[H])([H])[H])[H])([H])[H])c2c(c(Cl)c(c(c2C1=O)[H])[H])[H])([H])[H])([H])[H])[H])([H])([H])[H]

>  <h>  (89) 
<NA>

>  <Training>  (89) 
True

>  <Success>  (89) 
True

>  <enamine_searched>  (89) 
False

>  <enamine_id>  (89) 
nan

$$$$

     RDKit          3D

 60 65  0  0  0  0  0  0  0  0999 V2000
   -6.7834   -3.4340  -26.0888 C   0  0  0  0  0  0  0  0  0  0  0  0
   -7.0160   -2.8850  -24.8157 O   0  0  0  0  0  0  0  0  0  0  0  0
   -7.9934   -3.5896  -24.0784 C   0  0  0  0  0  0  0  0  0  0  0  0
   -8.2985   -2.8776  -22.7599 C   0  0  1  0  0  0  0  0  0  0  0  0
   -7.0266   -2.5340  -21.9681 C   0  0  0  0  0  0  0  0  0  0  0  0
   -7.3874   -1.3306  -21.2383 N   0  0  0  0  0  0  0  0  0  0  0  0
   -6.6184   -0.7727  -20.1831 C   0  0  0  0  0  0  0  0  0  0  0  0
   -6.9261   -1.0415  -18.8768 C   0  0  0  0  0  0  0  0  0  0  0  0
   -6.2287   -0.5671  -17.8141 N   0  0  0  0  0  0  0  0  0  0  0  0
   -5.2011    0.2101  -18.0656 C   0  0  0  0  0  0  0  0  0  0  0  0
   -4.7842    0.5878  -19.3733 C   0  0  0  0  0  0  0  0  0  0  0  0
   -3.6605    1.4234  -19.6042 C   0  0  0  0  0  0  0  0  0  0  0  0
   -3.3175    1.7871  -20.8786 C   0  0  0  0  0  0  0  0  0  0  0  0
   -4.0726    1.3330  -21.9793 C   0  0  0  0  0  0  0  0  0  0  0  0
   -5.1282    0.4719  -21.7801 C   0  0  0  0  0  0  0  0  0  0  0  0
   -5.5173    0.0882  -20.4728 C   0  0  0  0  0  0  0  0  0  0  0  0
   -5.6759    0.0732  -22.6302 H   0  0  0  0  0  0  0  0  0  0  0  0
   -3.7999    1.6642  -22.9799 H   0  0  0  0  0  0  0  0  0  0  0  0
   -2.4444    2.4074  -21.0492 H   0  0  0  0  0  0  0  0  0  0  0  0
   -3.0879    1.7626  -18.7466 H   0  0  0  0  0  0  0  0  0  0  0  0
   -4.6361    0.5804  -17.2092 H   0  0  0  0  0  0  0  0  0  0  0  0
   -7.7782   -1.6768  -18.6423 H   0  0  0  0  0  0  0  0  0  0  0  0
   -8.6121   -0.7972  -21.5776 C   0  0  0  0  0  0  0  0  0  0  0  0
   -9.1553    0.1103  -20.9849 O   0  0  0  0  0  0  0  0  0  0  0  0
   -9.1502   -1.5693  -22.8089 C   0  0  1  0  0  0  0  0  0  0  0  0
   -8.8893   -0.7874  -24.1224 C   0  0  0  0  0  0  0  0  0  0  0  0
   -9.7344    0.3877  -24.2395 N   0  0  0  0  0  0  0  0  0  0  0  0
   -9.1517    1.6208  -24.7598 C   0  0  0  0  0  0  0  0  0  0  0  0
   -8.3507    2.3949  -23.7451 C   0  0  0  0  0  0  0  0  0  0  0  0
   -8.8775    3.3058  -22.7950 C   0  0  0  0  0  0  0  0  0  0  0  0
   -7.9380    3.7749  -21.9675 N   0  0  0  0  0  0  0  0  0  0  0  0
   -6.8139    3.1923  -22.3940 N   0  0  0  0  0  0  0  0  0  0  0  0
   -7.0007    2.3600  -23.4496 C   0  0  0  0  0  0  0  0  0  0  0  0
   -6.1470    1.8319  -23.8539 H   0  0  0  0  0  0  0  0  0  0  0  0
   -5.9313    3.3466  -21.9264 H   0  0  0  0  0  0  0  0  0  0  0  0
   -9.8994    3.6444  -22.6672 H   0  0  0  0  0  0  0  0  0  0  0  0
   -8.5381    1.3638  -25.6293 H   0  0  0  0  0  0  0  0  0  0  0  0
   -9.9898    2.2242  -25.1251 H   0  0  0  0  0  0  0  0  0  0  0  0
  -11.0877    0.3165  -24.0487 C   0  0  0  0  0  0  0  0  0  0  0  0
  -11.8592    1.1633  -24.4778 O   0  0  0  0  0  0  0  0  0  0  0  0
  -11.5575   -0.8492  -23.2369 C   0  0  0  0  0  0  0  0  0  0  0  0
  -12.9292   -0.9523  -23.0082 C   0  0  0  0  0  0  0  0  0  0  0  0
  -13.4262   -1.9219  -22.1676 C   0  0  0  0  0  0  0  0  0  0  0  0
  -12.5291   -2.7938  -21.5622 C   0  0  0  0  0  0  0  0  0  0  0  0
  -13.1509   -3.9605  -20.4424 Cl  0  0  0  0  0  0  0  0  0  0  0  0
  -11.1673   -2.7216  -21.7946 C   0  0  0  0  0  0  0  0  0  0  0  0
  -10.6516   -1.7481  -22.6580 C   0  0  0  0  0  0  0  0  0  0  0  0
  -10.5216   -3.4109  -21.2659 H   0  0  0  0  0  0  0  0  0  0  0  0
  -14.4857   -2.0025  -21.9509 H   0  0  0  0  0  0  0  0  0  0  0  0
  -13.5774   -0.2375  -23.4981 H   0  0  0  0  0  0  0  0  0  0  0  0
   -9.0704   -1.4760  -24.9585 H   0  0  0  0  0  0  0  0  0  0  0  0
   -7.8448   -0.4711  -24.1739 H   0  0  0  0  0  0  0  0  0  0  0  0
   -6.1776   -2.3620  -22.6405 H   0  0  0  0  0  0  0  0  0  0  0  0
   -6.7593   -3.3424  -21.2778 H   0  0  0  0  0  0  0  0  0  0  0  0
   -8.8744   -3.5983  -22.1743 H   0  0  0  0  0  0  0  0  0  0  0  0
   -7.6285   -4.6054  -23.8620 H   0  0  0  0  0  0  0  0  0  0  0  0
   -8.9182   -3.6935  -24.6701 H   0  0  0  0  0  0  0  0  0  0  0  0
   -6.0191   -2.8242  -26.5779 H   0  0  0  0  0  0  0  0  0  0  0  0
   -6.4176   -4.4693  -26.0218 H   0  0  0  0  0  0  0  0  0  0  0  0
   -7.6934   -3.4220  -26.7085 H   0  0  0  0  0  0  0  0  0  0  0  0
  1  2  1  0
  2  3  1  0
  3  4  1  0
  4  5  1  0
  5  6  1  0
  6  7  1  0
  7  8  2  0
  8  9  1  0
  9 10  2  0
 10 11  1  0
 11 12  2  0
 12 13  1  0
 13 14  2  0
 14 15  1  0
 15 16  2  0
 15 17  1  0
 14 18  1  0
 13 19  1  0
 12 20  1  0
 10 21  1  0
  8 22  1  0
  6 23  1  0
 23 24  2  0
 23 25  1  0
 25 26  1  6
 26 27  1  0
 27 28  1  0
 28 29  1  0
 29 30  1  0
 30 31  2  0
 31 32  1  0
 32 33  1  0
 33 34  1  0
 32 35  1  0
 30 36  1  0
 28 37  1  0
 28 38  1  0
 27 39  1  0
 39 40  2  0
 39 41  1  0
 41 42  2  0
 42 43  1  0
 43 44  2  0
 44 45  1  0
 44 46  1  0
 46 47  2  0
 46 48  1  0
 43 49  1  0
 42 50  1  0
 26 51  1  0
 26 52  1  0
  5 53  1  0
  5 54  1  0
  4 55  1  1
  3 56  1  0
  3 57  1  0
  1 58  1  0
  1 59  1  0
  1 60  1  0
 25  4  1  0
 33 29  2  0
 47 41  1  0
 16  7  1  0
 47 25  1  0
 16 11  1  0
M  END
>  <cnnaffinities>  (90) 
[5.97813, 5.19642]

>  <score>  (90) 
5.97813

>  <index>  (90) 
92

>  <Smiles>  (90) 
C(OC([C@]1(C(N(c2c(nc(c3c(c(c(c(c23)[H])[H])[H])[H])[H])[H])C(=O)[C@]21C(N(C(c1c(nn(c1[H])[H])[H])([H])[H])C(=O)c1c(c(c(Cl)c(c21)[H])[H])[H])([H])[H])([H])[H])[H])([H])[H])([H])([H])[H]

>  <h>  (90) 
<NA>

>  <Training>  (90) 
True

>  <Success>  (90) 
True

>  <enamine_searched>  (90) 
False

>  <enamine_id>  (90) 
nan

$$$$

     RDKit          3D

 62 67  0  0  0  0  0  0  0  0999 V2000
  -11.4283    2.5365  -22.1055 C   0  0  0  0  0  0  0  0  0  0  0  0
  -10.4836    3.3133  -23.0161 C   0  0  0  0  0  0  0  0  0  0  0  0
   -9.1760    2.7153  -23.3035 N   0  0  0  0  0  0  0  0  0  0  0  0
   -6.9510    2.8213  -23.5094 N   0  0  0  0  0  0  0  0  0  0  0  0
   -7.9873    3.2014  -22.8118 C   0  0  0  0  0  0  0  0  0  0  0  0
   -7.4700    2.0722  -24.5328 C   0  0  0  0  0  0  0  0  0  0  0  0
   -8.8325    1.9643  -24.4221 C   0  0  0  0  0  0  0  0  0  0  0  0
   -9.8243    1.1394  -25.1638 C   0  0  0  0  0  0  0  0  0  0  0  0
  -10.2725    0.0023  -24.3668 N   0  0  0  0  0  0  0  0  0  0  0  0
   -9.3196   -1.0675  -24.1417 C   0  0  0  0  0  0  0  0  0  0  0  0
   -9.4756   -1.7517  -22.7593 C   0  0  2  0  0  0  0  0  0  0  0  0
   -8.9807   -0.8186  -21.6097 C   0  0  0  0  0  0  0  0  0  0  0  0
   -9.5955    0.0746  -21.0690 O   0  0  0  0  0  0  0  0  0  0  0  0
   -7.6879   -1.1742  -21.2953 N   0  0  0  0  0  0  0  0  0  0  0  0
   -6.9616   -0.6226  -20.2152 C   0  0  0  0  0  0  0  0  0  0  0  0
   -7.2310   -1.0037  -18.9259 C   0  0  0  0  0  0  0  0  0  0  0  0
   -6.4568   -0.6731  -17.8629 N   0  0  0  0  0  0  0  0  0  0  0  0
   -5.3967    0.0654  -18.0820 C   0  0  0  0  0  0  0  0  0  0  0  0
   -5.0342    0.5712  -19.3600 C   0  0  0  0  0  0  0  0  0  0  0  0
   -3.9083    1.4113  -19.5534 C   0  0  0  0  0  0  0  0  0  0  0  0
   -3.6444    1.9435  -20.7852 C   0  0  0  0  0  0  0  0  0  0  0  0
   -4.4919    1.6576  -21.8792 C   0  0  0  0  0  0  0  0  0  0  0  0
   -5.5681    0.8184  -21.7200 C   0  0  0  0  0  0  0  0  0  0  0  0
   -5.8545    0.2443  -20.4583 C   0  0  0  0  0  0  0  0  0  0  0  0
   -6.2575    0.6563  -22.5433 H   0  0  0  0  0  0  0  0  0  0  0  0
   -4.3176    2.1274  -22.8422 H   0  0  0  0  0  0  0  0  0  0  0  0
   -2.8001    2.6153  -20.9182 H   0  0  0  0  0  0  0  0  0  0  0  0
   -3.2834    1.6369  -18.6939 H   0  0  0  0  0  0  0  0  0  0  0  0
   -4.7666    0.3077  -17.2253 H   0  0  0  0  0  0  0  0  0  0  0  0
   -8.0980   -1.6253  -18.7119 H   0  0  0  0  0  0  0  0  0  0  0  0
   -7.1692   -2.2410  -22.1210 C   0  0  0  0  0  0  0  0  0  0  0  0
   -8.4535   -2.9202  -22.6269 C   0  0  2  0  0  0  0  0  0  0  0  0
   -8.1917   -3.7721  -23.8628 C   0  0  0  0  0  0  0  0  0  0  0  0
   -7.6847   -3.1782  -24.6335 H   0  0  0  0  0  0  0  0  0  0  0  0
   -9.1164   -4.1700  -24.2936 H   0  0  0  0  0  0  0  0  0  0  0  0
   -7.5368   -4.6148  -23.6169 H   0  0  0  0  0  0  0  0  0  0  0  0
   -8.8101   -3.5581  -21.8106 H   0  0  0  0  0  0  0  0  0  0  0  0
   -6.5273   -2.9123  -21.5410 H   0  0  0  0  0  0  0  0  0  0  0  0
   -6.5730   -1.8450  -22.9634 H   0  0  0  0  0  0  0  0  0  0  0  0
  -10.9457   -2.0739  -22.5593 C   0  0  0  0  0  0  0  0  0  0  0  0
  -11.3968   -3.1345  -21.7589 C   0  0  0  0  0  0  0  0  0  0  0  0
  -12.6983   -3.1235  -21.2942 C   0  0  0  0  0  0  0  0  0  0  0  0
  -13.1055   -4.0820  -20.4453 F   0  0  0  0  0  0  0  0  0  0  0  0
  -13.6083   -2.1253  -21.6226 C   0  0  0  0  0  0  0  0  0  0  0  0
  -13.2084   -1.1678  -22.5271 C   0  0  0  0  0  0  0  0  0  0  0  0
  -11.9122   -1.1722  -23.0353 C   0  0  0  0  0  0  0  0  0  0  0  0
  -11.5934   -0.1498  -24.0860 C   0  0  0  0  0  0  0  0  0  0  0  0
  -12.4705    0.5439  -24.5929 O   0  0  0  0  0  0  0  0  0  0  0  0
  -13.8854   -0.3929  -22.8687 H   0  0  0  0  0  0  0  0  0  0  0  0
  -14.5997   -2.1357  -21.1849 H   0  0  0  0  0  0  0  0  0  0  0  0
  -10.7567   -3.9579  -21.4591 H   0  0  0  0  0  0  0  0  0  0  0  0
   -8.3153   -0.6466  -24.2366 H   0  0  0  0  0  0  0  0  0  0  0  0
   -9.4530   -1.8247  -24.9254 H   0  0  0  0  0  0  0  0  0  0  0  0
  -10.7156    1.7019  -25.4500 H   0  0  0  0  0  0  0  0  0  0  0  0
   -9.3809    0.7847  -26.1001 H   0  0  0  0  0  0  0  0  0  0  0  0
   -6.8362    1.6564  -25.3091 H   0  0  0  0  0  0  0  0  0  0  0  0
   -7.9304    3.8478  -21.9450 H   0  0  0  0  0  0  0  0  0  0  0  0
  -11.0033    3.5167  -23.9576 H   0  0  0  0  0  0  0  0  0  0  0  0
  -10.2609    4.2960  -22.5838 H   0  0  0  0  0  0  0  0  0  0  0  0
  -10.9620    2.2670  -21.1597 H   0  0  0  0  0  0  0  0  0  0  0  0
  -12.2960    3.1754  -21.9164 H   0  0  0  0  0  0  0  0  0  0  0  0
  -11.8014    1.6248  -22.5713 H   0  0  0  0  0  0  0  0  0  0  0  0
  1  2  1  0
  2  3  1  0
  3  4  1  0
  4  5  2  0
  5  6  1  0
  6  7  2  0
  7  8  1  0
  8  9  1  0
  9 10  1  0
 11 10  1  6
 11 12  1  0
 12 13  2  0
 12 14  1  0
 14 15  1  0
 15 16  2  0
 16 17  1  0
 17 18  2  0
 18 19  1  0
 19 20  2  0
 20 21  1  0
 21 22  2  0
 22 23  1  0
 23 24  2  0
 23 25  1  0
 22 26  1  0
 21 27  1  0
 20 28  1  0
 18 29  1  0
 16 30  1  0
 14 31  1  0
 31 32  1  0
 32 33  1  0
 33 34  1  0
 33 35  1  0
 33 36  1  0
 32 37  1  1
 31 38  1  0
 31 39  1  0
 11 40  1  0
 40 41  2  0
 41 42  1  0
 42 43  1  0
 42 44  2  0
 44 45  1  0
 45 46  2  0
 46 47  1  0
 47 48  2  0
 45 49  1  0
 44 50  1  0
 41 51  1  0
 10 52  1  0
 10 53  1  0
  8 54  1  0
  8 55  1  0
  6 56  1  0
  5 57  1  0
  2 58  1  0
  2 59  1  0
  1 60  1  0
  1 61  1  0
  1 62  1  0
  7  3  1  0
 47  9  1  0
 32 11  1  0
 46 40  1  0
 24 15  1  0
 24 19  1  0
M  END
>  <cnnaffinities>  (91) 
[6.58582]

>  <score>  (91) 
6.58582

>  <index>  (91) 
93

>  <Smiles>  (91) 
C(C(n1nc(c(c1C(N1C([C@@]2(C(=O)N(c3c(nc(c4c(c(c(c(c34)[H])[H])[H])[H])[H])[H])C([C@@]2(C([H])([H])[H])[H])([H])[H])c2c(c(F)c(c(c2C1=O)[H])[H])[H])([H])[H])([H])[H])[H])[H])([H])[H])([H])([H])[H]

>  <h>  (91) 
<NA>

>  <Training>  (91) 
True

>  <Success>  (91) 
True

>  <enamine_searched>  (91) 
False

>  <enamine_id>  (91) 
nan

$$$$

     RDKit          3D

 66 71  0  0  0  0  0  0  0  0999 V2000
   -7.3547    3.4430  -21.9155 C   0  0  0  0  0  0  0  0  0  0  0  0
   -8.2203    2.9702  -22.9874 N   0  0  0  0  0  0  0  0  0  0  0  0
   -7.6443    2.2259  -23.9794 C   0  0  0  0  0  0  0  0  0  0  0  0
   -6.4399    2.0494  -24.0726 O   0  0  0  0  0  0  0  0  0  0  0  0
   -8.6190    1.6190  -24.9888 C   0  0  0  0  0  0  0  0  0  0  0  0
   -9.3200    0.4916  -24.4157 N   0  0  0  0  0  0  0  0  0  0  0  0
   -8.5829   -0.7471  -24.2389 C   0  0  0  0  0  0  0  0  0  0  0  0
   -9.0099   -1.4810  -22.9491 C   0  0  2  0  0  0  0  0  0  0  0  0
   -8.4825   -0.7166  -21.7154 C   0  0  0  0  0  0  0  0  0  0  0  0
   -8.9172    0.3204  -21.2469 O   0  0  0  0  0  0  0  0  0  0  0  0
   -7.3976   -1.3911  -21.2131 N   0  0  0  0  0  0  0  0  0  0  0  0
   -6.6163   -0.8042  -20.1845 C   0  0  0  0  0  0  0  0  0  0  0  0
   -6.9322   -1.0510  -18.8742 C   0  0  0  0  0  0  0  0  0  0  0  0
   -6.2387   -0.5709  -17.8133 N   0  0  0  0  0  0  0  0  0  0  0  0
   -5.2111    0.2037  -18.0708 C   0  0  0  0  0  0  0  0  0  0  0  0
   -4.7944    0.5709  -19.3831 C   0  0  0  0  0  0  0  0  0  0  0  0
   -3.6570    1.3900  -19.6129 C   0  0  0  0  0  0  0  0  0  0  0  0
   -3.3057    1.7523  -20.8848 C   0  0  0  0  0  0  0  0  0  0  0  0
   -4.0821    1.3322  -21.9863 C   0  0  0  0  0  0  0  0  0  0  0  0
   -5.1662    0.5044  -21.7948 C   0  0  0  0  0  0  0  0  0  0  0  0
   -5.5357    0.0818  -20.4858 C   0  0  0  0  0  0  0  0  0  0  0  0
   -5.7419    0.1775  -22.6566 H   0  0  0  0  0  0  0  0  0  0  0  0
   -3.8271    1.6601  -22.9908 H   0  0  0  0  0  0  0  0  0  0  0  0
   -2.4217    2.3603  -21.0514 H   0  0  0  0  0  0  0  0  0  0  0  0
   -3.0855    1.7219  -18.7502 H   0  0  0  0  0  0  0  0  0  0  0  0
   -4.6349    0.5720  -17.2208 H   0  0  0  0  0  0  0  0  0  0  0  0
   -7.7919   -1.6762  -18.6455 H   0  0  0  0  0  0  0  0  0  0  0  0
   -7.0610   -2.5997  -21.9424 C   0  0  0  0  0  0  0  0  0  0  0  0
   -8.3007   -2.8638  -22.8133 C   0  0  2  0  0  0  0  0  0  0  0  0
   -7.9261   -3.6206  -24.0938 C   0  0  0  0  0  0  0  0  0  0  0  0
   -9.0885   -3.9630  -24.8827 N   0  0  0  0  0  0  0  0  0  0  0  0
   -8.9845   -4.5898  -26.0852 C   0  0  0  0  0  0  0  0  0  0  0  0
  -10.1295   -4.9098  -26.8406 C   0  0  0  0  0  0  0  0  0  0  0  0
   -9.9264   -5.5287  -28.0507 C   0  0  0  0  0  0  0  0  0  0  0  0
   -8.7117   -5.8383  -28.5329 N   0  0  0  0  0  0  0  0  0  0  0  0
   -7.7089   -5.4994  -27.7363 C   0  0  0  0  0  0  0  0  0  0  0  0
   -7.7615   -4.8916  -26.5455 N   0  0  0  0  0  0  0  0  0  0  0  0
   -6.7050   -5.7440  -28.0948 H   0  0  0  0  0  0  0  0  0  0  0  0
  -10.7698   -5.8001  -28.6842 H   0  0  0  0  0  0  0  0  0  0  0  0
  -11.1283   -4.6818  -26.4856 H   0  0  0  0  0  0  0  0  0  0  0  0
  -10.0084   -3.7483  -24.5282 H   0  0  0  0  0  0  0  0  0  0  0  0
   -7.3926   -4.5455  -23.8373 H   0  0  0  0  0  0  0  0  0  0  0  0
   -7.2396   -3.0289  -24.7175 H   0  0  0  0  0  0  0  0  0  0  0  0
   -8.9779   -3.5180  -22.2547 H   0  0  0  0  0  0  0  0  0  0  0  0
   -6.8590   -3.4283  -21.2562 H   0  0  0  0  0  0  0  0  0  0  0  0
   -6.1668   -2.4591  -22.5695 H   0  0  0  0  0  0  0  0  0  0  0  0
  -10.5222   -1.5229  -22.8941 C   0  0  0  0  0  0  0  0  0  0  0  0
  -11.1605   -2.4041  -22.0183 C   0  0  0  0  0  0  0  0  0  0  0  0
  -12.5373   -2.3969  -21.9131 C   0  0  0  0  0  0  0  0  0  0  0  0
  -13.2828   -3.4583  -20.7590 Cl  0  0  0  0  0  0  0  0  0  0  0  0
  -13.3299   -1.5316  -22.6661 C   0  0  0  0  0  0  0  0  0  0  0  0
  -12.7003   -0.6247  -23.4941 C   0  0  0  0  0  0  0  0  0  0  0  0
  -11.3115   -0.5965  -23.5856 C   0  0  0  0  0  0  0  0  0  0  0  0
  -10.6873    0.5140  -24.3665 C   0  0  0  0  0  0  0  0  0  0  0  0
  -11.3529    1.4017  -24.8810 O   0  0  0  0  0  0  0  0  0  0  0  0
  -13.2531    0.1023  -24.0751 H   0  0  0  0  0  0  0  0  0  0  0  0
  -14.4105   -1.5698  -22.5828 H   0  0  0  0  0  0  0  0  0  0  0  0
  -10.5960   -3.0731  -21.3785 H   0  0  0  0  0  0  0  0  0  0  0  0
   -8.7582   -1.4138  -25.0927 H   0  0  0  0  0  0  0  0  0  0  0  0
   -7.5119   -0.5179  -24.2056 H   0  0  0  0  0  0  0  0  0  0  0  0
   -8.0440    1.3003  -25.8654 H   0  0  0  0  0  0  0  0  0  0  0  0
   -9.3795    2.3443  -25.2912 H   0  0  0  0  0  0  0  0  0  0  0  0
   -9.1795    2.7585  -22.7370 H   0  0  0  0  0  0  0  0  0  0  0  0
   -7.9419    4.0045  -21.1840 H   0  0  0  0  0  0  0  0  0  0  0  0
   -6.5944    4.1137  -22.3269 H   0  0  0  0  0  0  0  0  0  0  0  0
   -6.8475    2.5974  -21.4249 H   0  0  0  0  0  0  0  0  0  0  0  0
  1  2  1  0
  2  3  1  0
  3  4  2  0
  3  5  1  0
  5  6  1  0
  6  7  1  0
  8  7  1  6
  8  9  1  0
  9 10  2  0
  9 11  1  0
 11 12  1  0
 12 13  2  0
 13 14  1  0
 14 15  2  0
 15 16  1  0
 16 17  2  0
 17 18  1  0
 18 19  2  0
 19 20  1  0
 20 21  2  0
 20 22  1  0
 19 23  1  0
 18 24  1  0
 17 25  1  0
 15 26  1  0
 13 27  1  0
 11 28  1  0
 28 29  1  0
 29 30  1  0
 30 31  1  0
 31 32  1  0
 32 33  2  0
 33 34  1  0
 34 35  2  0
 35 36  1  0
 36 37  2  0
 36 38  1  0
 34 39  1  0
 33 40  1  0
 31 41  1  0
 30 42  1  0
 30 43  1  0
 29 44  1  1
 28 45  1  0
 28 46  1  0
  8 47  1  0
 47 48  2  0
 48 49  1  0
 49 50  1  0
 49 51  2  0
 51 52  1  0
 52 53  2  0
 53 54  1  0
 54 55  2  0
 52 56  1  0
 51 57  1  0
 48 58  1  0
  7 59  1  0
  7 60  1  0
  5 61  1  0
  5 62  1  0
  2 63  1  0
  1 64  1  0
  1 65  1  0
  1 66  1  0
 54  6  1  0
 29  8  1  0
 37 32  1  0
 53 47  1  0
 21 12  1  0
 21 16  1  0
M  END
>  <cnnaffinities>  (92) 
[5.73876]

>  <score>  (92) 
5.73876

>  <index>  (92) 
95

>  <Smiles>  (92) 
C(N(C(=O)C(N1C([C@@]2(C(=O)N(c3c(nc(c4c(c(c(c(c34)[H])[H])[H])[H])[H])[H])C([C@@]2(C(N(c2c(c(nc(n2)[H])[H])[H])[H])([H])[H])[H])([H])[H])c2c(c(Cl)c(c(c2C1=O)[H])[H])[H])([H])[H])([H])[H])[H])([H])([H])[H]

>  <h>  (92) 
<NA>

>  <Training>  (92) 
True

>  <Success>  (92) 
True

>  <enamine_searched>  (92) 
False

>  <enamine_id>  (92) 
nan

$$$$

     RDKit          3D

 66 70  0  0  0  0  0  0  0  0999 V2000
   -7.4071    3.4022  -21.9177 C   0  0  0  0  0  0  0  0  0  0  0  0
   -8.3488    2.9178  -22.9172 N   0  0  0  0  0  0  0  0  0  0  0  0
   -7.8256    2.1699  -23.9341 C   0  0  0  0  0  0  0  0  0  0  0  0
   -6.6278    1.9725  -24.0644 O   0  0  0  0  0  0  0  0  0  0  0  0
   -8.8419    1.5707  -24.9069 C   0  0  0  0  0  0  0  0  0  0  0  0
   -9.4980    0.4321  -24.2927 N   0  0  0  0  0  0  0  0  0  0  0  0
   -8.7467   -0.8046  -24.1393 C   0  0  0  0  0  0  0  0  0  0  0  0
   -9.1071   -1.5302  -22.8207 C   0  0  2  0  0  0  0  0  0  0  0  0
   -8.5574   -0.7401  -21.6096 C   0  0  0  0  0  0  0  0  0  0  0  0
   -9.0170    0.2692  -21.1059 O   0  0  0  0  0  0  0  0  0  0  0  0
   -7.4083   -1.3618  -21.1826 N   0  0  0  0  0  0  0  0  0  0  0  0
   -6.6209   -0.7814  -20.1610 C   0  0  0  0  0  0  0  0  0  0  0  0
   -6.9252   -1.0405  -18.8517 C   0  0  0  0  0  0  0  0  0  0  0  0
   -6.2259   -0.5634  -17.7944 N   0  0  0  0  0  0  0  0  0  0  0  0
   -5.1974    0.2068  -18.0576 C   0  0  0  0  0  0  0  0  0  0  0  0
   -4.7852    0.5735  -19.3710 C   0  0  0  0  0  0  0  0  0  0  0  0
   -3.6541    1.3966  -19.6087 C   0  0  0  0  0  0  0  0  0  0  0  0
   -3.3192    1.7679  -20.8804 C   0  0  0  0  0  0  0  0  0  0  0  0
   -4.1037    1.3515  -21.9777 C   0  0  0  0  0  0  0  0  0  0  0  0
   -5.1858    0.5230  -21.7807 C   0  0  0  0  0  0  0  0  0  0  0  0
   -5.5380    0.0948  -20.4707 C   0  0  0  0  0  0  0  0  0  0  0  0
   -5.7801    0.2135  -22.6367 H   0  0  0  0  0  0  0  0  0  0  0  0
   -3.8551    1.6839  -22.9815 H   0  0  0  0  0  0  0  0  0  0  0  0
   -2.4424    2.3836  -21.0527 H   0  0  0  0  0  0  0  0  0  0  0  0
   -3.0804    1.7331  -18.7494 H   0  0  0  0  0  0  0  0  0  0  0  0
   -4.6220    0.5751  -17.2075 H   0  0  0  0  0  0  0  0  0  0  0  0
   -7.7804   -1.6716  -18.6238 H   0  0  0  0  0  0  0  0  0  0  0  0
   -7.0593   -2.5618  -21.9185 C   0  0  0  0  0  0  0  0  0  0  0  0
   -8.3502   -2.8827  -22.6902 C   0  0  2  0  0  0  0  0  0  0  0  0
   -8.0798   -3.6688  -23.9755 C   0  0  0  0  0  0  0  0  0  0  0  0
   -7.5287   -4.9352  -23.6762 O   0  0  0  0  0  0  0  0  0  0  0  0
   -8.4631   -6.0125  -23.5896 C   0  0  0  0  0  0  0  0  0  0  0  0
   -7.9515   -6.9514  -22.5094 C   0  0  0  0  0  0  0  0  0  0  0  0
   -7.8286   -6.4113  -21.5693 H   0  0  0  0  0  0  0  0  0  0  0  0
   -6.9768   -7.3506  -22.8072 H   0  0  0  0  0  0  0  0  0  0  0  0
   -8.6473   -7.7821  -22.3466 H   0  0  0  0  0  0  0  0  0  0  0  0
   -8.5760   -6.7306  -24.9351 C   0  0  0  0  0  0  0  0  0  0  0  0
   -8.9193   -6.0541  -25.7274 H   0  0  0  0  0  0  0  0  0  0  0  0
   -9.2859   -7.5650  -24.8586 H   0  0  0  0  0  0  0  0  0  0  0  0
   -7.5957   -7.1282  -25.2247 H   0  0  0  0  0  0  0  0  0  0  0  0
   -9.4608   -5.6256  -23.3059 H   0  0  0  0  0  0  0  0  0  0  0  0
   -8.9964   -3.7568  -24.5838 H   0  0  0  0  0  0  0  0  0  0  0  0
   -7.3284   -3.1413  -24.5790 H   0  0  0  0  0  0  0  0  0  0  0  0
   -8.9498   -3.5301  -22.0463 H   0  0  0  0  0  0  0  0  0  0  0  0
   -6.7767   -3.3713  -21.2381 H   0  0  0  0  0  0  0  0  0  0  0  0
   -6.2136   -2.3917  -22.6030 H   0  0  0  0  0  0  0  0  0  0  0  0
  -10.6145   -1.6153  -22.7368 C   0  0  0  0  0  0  0  0  0  0  0  0
  -11.2255   -2.5542  -21.9045 C   0  0  0  0  0  0  0  0  0  0  0  0
  -12.5982   -2.5735  -21.7699 C   0  0  0  0  0  0  0  0  0  0  0  0
  -13.3031   -3.6999  -20.6558 Cl  0  0  0  0  0  0  0  0  0  0  0  0
  -13.4223   -1.6898  -22.4610 C   0  0  0  0  0  0  0  0  0  0  0  0
  -12.8236   -0.7432  -23.2627 C   0  0  0  0  0  0  0  0  0  0  0  0
  -11.4383   -0.6847  -23.3828 C   0  0  0  0  0  0  0  0  0  0  0  0
  -10.8599    0.4446  -24.1756 C   0  0  0  0  0  0  0  0  0  0  0  0
  -11.5534    1.3304  -24.6529 O   0  0  0  0  0  0  0  0  0  0  0  0
  -13.4046   -0.0133  -23.8103 H   0  0  0  0  0  0  0  0  0  0  0  0
  -14.4996   -1.7459  -22.3551 H   0  0  0  0  0  0  0  0  0  0  0  0
  -10.6523   -3.2728  -21.3329 H   0  0  0  0  0  0  0  0  0  0  0  0
   -8.9677   -1.4830  -24.9750 H   0  0  0  0  0  0  0  0  0  0  0  0
   -7.6763   -0.5728  -24.1700 H   0  0  0  0  0  0  0  0  0  0  0  0
   -9.6198    2.2908  -25.1830 H   0  0  0  0  0  0  0  0  0  0  0  0
   -8.3190    1.2562  -25.8185 H   0  0  0  0  0  0  0  0  0  0  0  0
   -9.2877    2.6958  -22.6024 H   0  0  0  0  0  0  0  0  0  0  0  0
   -6.6429    4.0098  -22.4141 H   0  0  0  0  0  0  0  0  0  0  0  0
   -6.9160    2.5562  -21.4059 H   0  0  0  0  0  0  0  0  0  0  0  0
   -7.9241    4.0474  -21.2031 H   0  0  0  0  0  0  0  0  0  0  0  0
  1  2  1  0
  2  3  1  0
  3  4  2  0
  3  5  1  0
  5  6  1  0
  6  7  1  0
  8  7  1  6
  8  9  1  0
  9 10  2  0
  9 11  1  0
 11 12  1  0
 12 13  2  0
 13 14  1  0
 14 15  2  0
 15 16  1  0
 16 17  2  0
 17 18  1  0
 18 19  2  0
 19 20  1  0
 20 21  2  0
 20 22  1  0
 19 23  1  0
 18 24  1  0
 17 25  1  0
 15 26  1  0
 13 27  1  0
 11 28  1  0
 28 29  1  0
 29 30  1  0
 30 31  1  0
 31 32  1  0
 32 33  1  0
 33 34  1  0
 33 35  1  0
 33 36  1  0
 32 37  1  0
 37 38  1  0
 37 39  1  0
 37 40  1  0
 32 41  1  0
 30 42  1  0
 30 43  1  0
 29 44  1  1
 28 45  1  0
 28 46  1  0
  8 47  1  0
 47 48  2  0
 48 49  1  0
 49 50  1  0
 49 51  2  0
 51 52  1  0
 52 53  2  0
 53 54  1  0
 54 55  2  0
 52 56  1  0
 51 57  1  0
 48 58  1  0
  7 59  1  0
  7 60  1  0
  5 61  1  0
  5 62  1  0
  2 63  1  0
  1 64  1  0
  1 65  1  0
  1 66  1  0
 54  6  1  0
 29  8  1  0
 53 47  1  0
 21 12  1  0
 21 16  1  0
M  END
>  <cnnaffinities>  (93) 
[5.84257, 5.81822, 5.65915]

>  <score>  (93) 
5.84257

>  <index>  (93) 
96

>  <Smiles>  (93) 
C(N(C(=O)C(N1C([C@@]2(C(=O)N(c3c(nc(c4c(c(c(c(c34)[H])[H])[H])[H])[H])[H])C([C@@]2(C(OC(C([H])([H])[H])(C([H])([H])[H])[H])([H])[H])[H])([H])[H])c2c(c(Cl)c(c(c2C1=O)[H])[H])[H])([H])[H])([H])[H])[H])([H])([H])[H]

>  <h>  (93) 
<NA>

>  <Training>  (93) 
True

>  <Success>  (93) 
True

>  <enamine_searched>  (93) 
False

>  <enamine_id>  (93) 
nan

$$$$

     RDKit          3D

 40 43  0  0  0  0  0  0  0  0999 V2000
   -9.7157   -5.3004  -23.4918 C   0  0  0  0  0  0  0  0  0  0  0  0
  -10.6609   -4.3393  -22.7612 C   0  0  2  0  0  0  0  0  0  0  0  0
  -11.4444   -3.4862  -23.7526 C   0  0  0  0  0  0  0  0  0  0  0  0
  -10.5712   -2.6326  -24.4603 O   0  0  0  0  0  0  0  0  0  0  0  0
   -9.9120   -1.7104  -23.6191 C   0  0  0  0  0  0  0  0  0  0  0  0
   -9.0917   -2.3576  -22.4801 C   0  0  1  0  0  0  0  0  0  0  0  0
  -10.0103   -3.3698  -21.7764 C   0  0  0  0  0  0  0  0  0  0  0  0
  -10.8206   -2.7815  -21.3287 H   0  0  0  0  0  0  0  0  0  0  0  0
   -9.4774   -3.8719  -20.9587 H   0  0  0  0  0  0  0  0  0  0  0  0
   -7.7869   -2.8984  -22.8775 N   0  0  0  0  0  0  0  0  0  0  0  0
   -6.7668   -2.5128  -22.0308 C   0  0  0  0  0  0  0  0  0  0  0  0
   -5.6413   -2.9407  -21.9523 O   0  0  0  0  0  0  0  0  0  0  0  0
   -7.3063   -1.4769  -21.2461 N   0  0  0  0  0  0  0  0  0  0  0  0
   -6.6004   -0.8271  -20.2046 C   0  0  0  0  0  0  0  0  0  0  0  0
   -6.9455   -1.0691  -18.8998 C   0  0  0  0  0  0  0  0  0  0  0  0
   -6.2744   -0.5702  -17.8353 N   0  0  0  0  0  0  0  0  0  0  0  0
   -5.2340    0.1870  -18.0826 C   0  0  0  0  0  0  0  0  0  0  0  0
   -4.7933    0.5404  -19.3907 C   0  0  0  0  0  0  0  0  0  0  0  0
   -3.6715    1.3807  -19.5987 C   0  0  0  0  0  0  0  0  0  0  0  0
   -3.3485    1.7871  -20.8636 C   0  0  0  0  0  0  0  0  0  0  0  0
   -4.1452    1.3983  -21.9669 C   0  0  0  0  0  0  0  0  0  0  0  0
   -5.2184    0.5604  -21.7936 C   0  0  0  0  0  0  0  0  0  0  0  0
   -5.5361    0.0743  -20.4958 C   0  0  0  0  0  0  0  0  0  0  0  0
   -5.8336    0.2662  -22.6414 H   0  0  0  0  0  0  0  0  0  0  0  0
   -3.8923    1.7571  -22.9610 H   0  0  0  0  0  0  0  0  0  0  0  0
   -2.4931    2.4366  -21.0266 H   0  0  0  0  0  0  0  0  0  0  0  0
   -3.1116    1.7180  -18.7285 H   0  0  0  0  0  0  0  0  0  0  0  0
   -4.6917    0.5791  -17.2245 H   0  0  0  0  0  0  0  0  0  0  0  0
   -7.7941   -1.7065  -18.6772 H   0  0  0  0  0  0  0  0  0  0  0  0
   -8.6620   -1.2856  -21.4892 C   0  0  0  0  0  0  0  0  0  0  0  0
   -9.3589   -0.4234  -21.0047 O   0  0  0  0  0  0  0  0  0  0  0  0
   -7.7358   -3.8431  -23.2415 H   0  0  0  0  0  0  0  0  0  0  0  0
   -9.2415   -1.1340  -24.2607 H   0  0  0  0  0  0  0  0  0  0  0  0
  -10.6528   -1.0451  -23.1487 H   0  0  0  0  0  0  0  0  0  0  0  0
  -12.2234   -2.9047  -23.2241 H   0  0  0  0  0  0  0  0  0  0  0  0
  -11.9390   -4.1097  -24.5020 H   0  0  0  0  0  0  0  0  0  0  0  0
  -11.3769   -4.9425  -22.2008 H   0  0  0  0  0  0  0  0  0  0  0  0
   -9.1192   -4.7996  -24.2617 H   0  0  0  0  0  0  0  0  0  0  0  0
  -10.3226   -6.0476  -24.0105 H   0  0  0  0  0  0  0  0  0  0  0  0
   -9.0667   -5.8350  -22.7866 H   0  0  0  0  0  0  0  0  0  0  0  0
  1  2  1  0
  2  3  1  0
  3  4  1  0
  4  5  1  0
  5  6  1  0
  6  7  1  0
  7  8  1  0
  7  9  1  0
  6 10  1  6
 10 11  1  0
 11 12  2  0
 11 13  1  0
 13 14  1  0
 14 15  2  0
 15 16  1  0
 16 17  2  0
 17 18  1  0
 18 19  2  0
 19 20  1  0
 20 21  2  0
 21 22  1  0
 22 23  2  0
 22 24  1  0
 21 25  1  0
 20 26  1  0
 19 27  1  0
 17 28  1  0
 15 29  1  0
 13 30  1  0
 30 31  2  0
 10 32  1  0
  5 33  1  0
  5 34  1  0
  3 35  1  0
  3 36  1  0
  2 37  1  1
  1 38  1  0
  1 39  1  0
  1 40  1  0
  7  2  1  0
 23 14  1  0
 30  6  1  0
 23 18  1  0
M  END
>  <cnnaffinities>  (94) 
[4.82074]

>  <score>  (94) 
4.82074

>  <index>  (94) 
97

>  <Smiles>  (94) 
C([C@@]1(C(OC([C@@]2(C1([H])[H])N(C(=O)N(c1c(nc(c3c(c(c(c(c13)[H])[H])[H])[H])[H])[H])C2=O)[H])([H])[H])([H])[H])[H])([H])([H])[H]

>  <h>  (94) 
<NA>

>  <Training>  (94) 
True

>  <Success>  (94) 
True

>  <enamine_searched>  (94) 
False

>  <enamine_id>  (94) 
nan

$$$$
