mol0_score_29.6377
     RDKit          3D

 63 69  0  0  1  0  0  0  0  0999 V2000
   10.5640    2.6540   24.5830 O   0  0  0  0  0  0  0  0  0  0  0  0
    9.9220    1.7340   24.1040 C   0  0  0  0  0  0  0  0  0  0  0  0
   10.5850    0.6000   23.3660 C   0  0  0  0  0  0  0  0  0  0  0  0
   11.9780    0.5890   23.2160 C   0  0  0  0  0  0  0  0  0  0  0  0
   12.5920   -0.2860   22.3360 C   0  0  0  0  0  0  0  0  0  0  0  0
   11.7990   -1.1410   21.5670 C   0  0  0  0  0  0  0  0  0  0  0  0
   12.4620   -2.1220   20.2840 Cl  0  0  0  0  0  0  0  0  0  0  0  0
   10.4330   -1.1780   21.7560 C   0  0  0  0  0  0  0  0  0  0  0  0
    9.8160   -0.3530   22.7010 C   0  0  0  0  0  0  0  0  0  0  0  0
    8.3050   -0.3560   22.7530 C   0  0  1  0  0  0  0  0  0  0  0  0
    7.8380    0.4290   23.9990 C   0  0  0  0  0  0  0  0  0  0  0  0
    8.5440    1.6920   24.1380 N   0  0  0  0  0  0  0  0  0  0  0  0
    7.8120    2.9100   24.4350 C   0  0  0  0  0  0  0  0  0  0  0  0
    7.5380    3.7720   23.2360 C   0  0  0  0  0  0  0  0  0  0  0  0
    7.9820    4.9460   22.9450 N   0  0  0  0  0  0  0  0  0  0  0  0
    7.2840    5.3620   21.8160 N   0  0  0  0  0  0  0  0  0  0  0  0
    6.4780    4.4020   21.5230 C   0  0  0  0  0  0  0  0  0  0  0  0
    6.5730    3.3540   22.3810 O   0  0  0  0  0  0  0  0  0  0  0  0
    5.7350    4.3760   20.7380 H   0  0  0  0  0  0  0  0  0  0  0  0
    8.3810    3.4930   25.1620 H   0  0  0  0  0  0  0  0  0  0  0  0
    6.8390    2.6490   24.8670 H   0  0  0  0  0  0  0  0  0  0  0  0
    8.0020   -0.1870   24.8960 H   0  0  0  0  0  0  0  0  0  0  0  0
    6.7680    0.6410   23.9110 H   0  0  0  0  0  0  0  0  0  0  0  0
    7.8050    0.3240   21.4620 C   0  0  0  0  0  0  0  0  0  0  0  0
    8.1870    1.3780   21.0040 O   0  0  0  0  0  0  0  0  0  0  0  0
    6.8520   -0.4810   20.8780 N   0  0  0  0  0  0  0  0  0  0  0  0
    6.0970    0.0300   19.7970 C   0  0  0  0  0  0  0  0  0  0  0  0
    6.4730   -0.2560   18.5120 C   0  0  0  0  0  0  0  0  0  0  0  0
    5.8250    0.2000   17.4130 N   0  0  0  0  0  0  0  0  0  0  0  0
    4.7970    0.9920   17.6080 C   0  0  0  0  0  0  0  0  0  0  0  0
    4.3240    1.3890   18.8930 C   0  0  0  0  0  0  0  0  0  0  0  0
    3.2190    2.2650   19.0560 C   0  0  0  0  0  0  0  0  0  0  0  0
    2.7810    2.6070   20.3050 C   0  0  0  0  0  0  0  0  0  0  0  0
    3.4330    2.1030   21.4510 C   0  0  0  0  0  0  0  0  0  0  0  0
    4.5210    1.2720   21.3250 C   0  0  0  0  0  0  0  0  0  0  0  0
    4.9850    0.8900   20.0320 C   0  0  0  0  0  0  0  0  0  0  0  0
    5.0390    0.9210   22.2130 H   0  0  0  0  0  0  0  0  0  0  0  0
    3.0850    2.3930   22.4380 H   0  0  0  0  0  0  0  0  0  0  0  0
    1.9350    3.2790   20.4230 H   0  0  0  0  0  0  0  0  0  0  0  0
    2.7370    2.6500   18.1630 H   0  0  0  0  0  0  0  0  0  0  0  0
    4.2710    1.3580   16.7250 H   0  0  0  0  0  0  0  0  0  0  0  0
    7.3530   -0.8730   18.3320 H   0  0  0  0  0  0  0  0  0  0  0  0
    6.5060   -1.6440   21.6690 C   0  0  0  0  0  0  0  0  0  0  0  0
    7.6870   -1.7740   22.6310 C   0  0  2  0  0  0  0  0  0  0  0  0
    7.3150   -2.5370   23.8870 C   0  0  0  0  0  0  0  0  0  0  0  0
    8.4750   -2.9540   24.6410 N   0  0  0  0  0  0  0  0  0  0  0  0
    8.3220   -3.6400   25.7940 C   0  0  0  0  0  0  0  0  0  0  0  0
    9.4010   -4.2160   26.3570 N   0  0  0  0  0  0  0  0  0  0  0  0
    9.1630   -4.7660   27.5370 C   0  0  0  0  0  0  0  0  0  0  0  0
    7.9940   -4.8190   28.1830 N   0  0  0  0  0  0  0  0  0  0  0  0
    7.0070   -4.2360   27.5070 C   0  0  0  0  0  0  0  0  0  0  0  0
    7.0820   -3.6510   26.3220 N   0  0  0  0  0  0  0  0  0  0  0  0
    6.0410   -4.2070   28.0090 H   0  0  0  0  0  0  0  0  0  0  0  0
   10.0210   -5.1840   28.0640 H   0  0  0  0  0  0  0  0  0  0  0  0
    9.4100   -2.8230   24.2840 H   0  0  0  0  0  0  0  0  0  0  0  0
    6.7380   -3.4270   23.6150 H   0  0  0  0  0  0  0  0  0  0  0  0
    6.6590   -1.9560   24.5390 H   0  0  0  0  0  0  0  0  0  0  0  0
    8.4400   -2.3890   22.1390 H   0  0  0  0  0  0  0  0  0  0  0  0
    6.3930   -2.5330   21.0370 H   0  0  0  0  0  0  0  0  0  0  0  0
    5.5710   -1.4960   22.2320 H   0  0  0  0  0  0  0  0  0  0  0  0
    9.8370   -1.7980   21.0990 H   0  0  0  0  0  0  0  0  0  0  0  0
   13.6730   -0.2750   22.2250 H   0  0  0  0  0  0  0  0  0  0  0  0
   12.5670    1.3020   23.7810 H   0  0  0  0  0  0  0  0  0  0  0  0
  1  2  2  0
  2  3  1  0
  2 12  1  0
  3  4  1  0
  3  9  2  0
  4  5  2  0
  4 63  1  0
  5  6  1  0
  5 62  1  0
  6  7  1  0
  6  8  2  0
  8  9  1  0
  8 61  1  0
 10  9  1  0
 10 11  1  1
 10 24  1  0
 10 44  1  0
 11 12  1  0
 11 22  1  0
 11 23  1  0
 12 13  1  0
 13 14  1  0
 13 20  1  0
 13 21  1  0
 14 15  2  0
 14 18  1  0
 15 16  1  0
 16 17  2  0
 17 18  1  0
 17 19  1  0
 24 25  2  0
 24 26  1  0
 26 27  1  0
 26 43  1  0
 27 28  2  0
 27 36  1  0
 28 29  1  0
 28 42  1  0
 29 30  2  0
 30 31  1  0
 30 41  1  0
 31 32  1  0
 31 36  2  0
 32 33  2  0
 32 40  1  0
 33 34  1  0
 33 39  1  0
 34 35  2  0
 34 38  1  0
 35 36  1  0
 35 37  1  0
 43 44  1  0
 43 59  1  0
 43 60  1  0
 44 45  1  0
 44 58  1  6
 45 46  1  0
 45 56  1  0
 45 57  1  0
 46 47  1  0
 46 55  1  0
 47 48  2  0
 47 52  1  0
 48 49  1  0
 49 50  2  0
 49 54  1  0
 50 51  1  0
 51 52  2  0
 51 53  1  0
M  END
>  <MODEL>  (1) 
       1

>  <ApoScore>  (1) 
29.6377

$$$$
mol1_score_21.8304
     RDKit          3D

 51 54  0  0  0  0  0  0  0  0999 V2000
   13.2450   -2.3850   23.8090 C   0  0  0  0  0  0  0  0  0  0  0  0
   12.0950   -1.7520   24.3230 O   0  0  0  0  0  0  0  0  0  0  0  0
   10.9330   -1.9730   23.6480 C   0  0  0  0  0  0  0  0  0  0  0  0
   10.8050   -2.8750   22.5970 C   0  0  0  0  0  0  0  0  0  0  0  0
    9.5550   -3.1100   22.0250 C   0  0  0  0  0  0  0  0  0  0  0  0
    8.4460   -2.4000   22.4650 C   0  0  0  0  0  0  0  0  0  0  0  0
    7.1510   -2.7170   21.9610 N   0  0  0  0  0  0  0  0  0  0  0  0
    6.5790   -3.9970   22.3620 C   0  0  0  0  0  0  0  0  0  0  0  0
    6.0430   -3.9690   23.7790 C   0  0  0  0  0  0  0  0  0  0  0  0
    4.6810   -3.8020   24.0240 C   0  0  0  0  0  0  0  0  0  0  0  0
    4.2020   -3.8060   25.3290 C   0  0  0  0  0  0  0  0  0  0  0  0
    5.0660   -4.0060   26.3980 C   0  0  0  0  0  0  0  0  0  0  0  0
    6.4240   -4.1630   26.1440 C   0  0  0  0  0  0  0  0  0  0  0  0
    7.5070   -4.4730   27.4720 Cl  0  0  0  0  0  0  0  0  0  0  0  0
    6.9260   -4.1000   24.8520 C   0  0  0  0  0  0  0  0  0  0  0  0
    7.9960   -4.1890   24.6700 H   0  0  0  0  0  0  0  0  0  0  0  0
    4.6960   -4.0400   27.4190 H   0  0  0  0  0  0  0  0  0  0  0  0
    3.1380   -3.7030   25.5130 H   0  0  0  0  0  0  0  0  0  0  0  0
    3.9930   -3.6630   23.1930 H   0  0  0  0  0  0  0  0  0  0  0  0
    5.7860   -4.2150   21.6480 H   0  0  0  0  0  0  0  0  0  0  0  0
    7.3490   -4.7710   22.2670 H   0  0  0  0  0  0  0  0  0  0  0  0
    6.2920   -1.7890   21.4190 C   0  0  0  0  0  0  0  0  0  0  0  0
    5.0930   -1.9950   21.3330 O   0  0  0  0  0  0  0  0  0  0  0  0
    6.9310   -0.5090   20.8710 C   0  0  0  0  0  0  0  0  0  0  0  0
    6.1240    0.0810   19.7540 C   0  0  0  0  0  0  0  0  0  0  0  0
    6.4340   -0.2240   18.4540 C   0  0  0  0  0  0  0  0  0  0  0  0
    5.7690    0.2220   17.3570 N   0  0  0  0  0  0  0  0  0  0  0  0
    4.7490    1.0160   17.5720 C   0  0  0  0  0  0  0  0  0  0  0  0
    4.2970    1.4030   18.8640 C   0  0  0  0  0  0  0  0  0  0  0  0
    3.1830    2.2620   19.0380 C   0  0  0  0  0  0  0  0  0  0  0  0
    2.7640    2.6110   20.2920 C   0  0  0  0  0  0  0  0  0  0  0  0
    3.4440    2.1150   21.4280 C   0  0  0  0  0  0  0  0  0  0  0  0
    4.5260    1.2830   21.2860 C   0  0  0  0  0  0  0  0  0  0  0  0
    4.9900    0.9120   19.9940 C   0  0  0  0  0  0  0  0  0  0  0  0
    5.0270    0.8970   22.1700 H   0  0  0  0  0  0  0  0  0  0  0  0
    3.1080    2.4060   22.4200 H   0  0  0  0  0  0  0  0  0  0  0  0
    1.9110    3.2720   20.4260 H   0  0  0  0  0  0  0  0  0  0  0  0
    2.6770    2.6440   18.1540 H   0  0  0  0  0  0  0  0  0  0  0  0
    4.2110    1.3950   16.7010 H   0  0  0  0  0  0  0  0  0  0  0  0
    7.2800   -0.8780   18.2420 H   0  0  0  0  0  0  0  0  0  0  0  0
    7.9430   -0.7620   20.5320 H   0  0  0  0  0  0  0  0  0  0  0  0
    7.0430    0.2050   21.6990 H   0  0  0  0  0  0  0  0  0  0  0  0
    8.5910   -1.4390   23.4650 C   0  0  0  0  0  0  0  0  0  0  0  0
    9.8280   -1.2250   24.0540 C   0  0  0  0  0  0  0  0  0  0  0  0
   10.0010   -0.4560   24.7930 H   0  0  0  0  0  0  0  0  0  0  0  0
    7.7270   -0.8730   23.8090 H   0  0  0  0  0  0  0  0  0  0  0  0
    9.4460   -3.8350   21.2200 H   0  0  0  0  0  0  0  0  0  0  0  0
   11.6630   -3.3830   22.1850 H   0  0  0  0  0  0  0  0  0  0  0  0
   14.0890   -1.8060   24.1660 H   0  0  0  0  0  0  0  0  0  0  0  0
   13.3280   -3.4350   24.1110 H   0  0  0  0  0  0  0  0  0  0  0  0
   13.2380   -2.3640   22.7260 H   0  0  0  0  0  0  0  0  0  0  0  0
  1  2  1  0
  1 49  1  0
  1 50  1  0
  1 51  1  0
  2  3  1  0
  3  4  2  0
  3 44  1  0
  4  5  1  0
  4 48  1  0
  5  6  2  0
  5 47  1  0
  6  7  1  0
  6 43  1  0
  7  8  1  0
  7 22  1  0
  8  9  1  0
  8 20  1  0
  8 21  1  0
  9 10  2  0
  9 15  1  0
 10 11  1  0
 10 19  1  0
 11 12  2  0
 11 18  1  0
 12 13  1  0
 12 17  1  0
 13 14  1  0
 13 15  2  0
 15 16  1  0
 22 23  2  0
 22 24  1  0
 24 25  1  0
 24 41  1  0
 24 42  1  0
 25 26  2  0
 25 34  1  0
 26 27  1  0
 26 40  1  0
 27 28  2  0
 28 29  1  0
 28 39  1  0
 29 30  1  0
 29 34  2  0
 30 31  2  0
 30 38  1  0
 31 32  1  0
 31 37  1  0
 32 33  2  0
 32 36  1  0
 33 34  1  0
 33 35  1  0
 43 44  2  0
 43 46  1  0
 44 45  1  0
M  END
>  <MODEL>  (2) 
       1

>  <ApoScore>  (2) 
21.8304

$$$$
mol2_score_25.5315
     RDKit          3D

 56 60  0  0  1  0  0  0  0  0999 V2000
   13.8670   -0.1990   23.9480 C   0  0  0  0  0  0  0  0  0  0  0  0
   12.9800   -1.3040   23.6470 N   0  0  0  0  0  0  0  0  0  0  0  0
   12.3820   -1.2800   22.4260 C   0  0  0  0  0  0  0  0  0  0  0  0
   12.1620   -0.2130   21.8610 O   0  0  0  0  0  0  0  0  0  0  0  0
   11.8750   -2.5940   21.8550 C   0  0  0  0  0  0  0  0  0  0  0  0
   10.5060   -2.8040   22.2970 N   0  0  0  0  0  0  0  0  0  0  0  0
    9.3800   -2.5080   21.4290 C   0  0  0  0  0  0  0  0  0  0  0  0
    8.1900   -1.8790   22.1840 C   0  0  2  0  0  0  0  0  0  0  0  0
    7.0270   -1.7490   21.1880 C   0  0  0  0  0  0  0  0  0  0  0  0
    6.3370   -2.6410   20.7390 O   0  0  0  0  0  0  0  0  0  0  0  0
    6.8650   -0.4160   20.8660 N   0  0  0  0  0  0  0  0  0  0  0  0
    6.0890    0.0170   19.7690 C   0  0  0  0  0  0  0  0  0  0  0  0
    6.4240   -0.3150   18.4800 C   0  0  0  0  0  0  0  0  0  0  0  0
    5.7920    0.1780   17.3850 N   0  0  0  0  0  0  0  0  0  0  0  0
    4.7970    1.0100   17.5840 C   0  0  0  0  0  0  0  0  0  0  0  0
    4.3300    1.4090   18.8710 C   0  0  0  0  0  0  0  0  0  0  0  0
    3.2230    2.2790   19.0420 C   0  0  0  0  0  0  0  0  0  0  0  0
    2.8000    2.6170   20.3000 C   0  0  0  0  0  0  0  0  0  0  0  0
    3.4650    2.1160   21.4400 C   0  0  0  0  0  0  0  0  0  0  0  0
    4.5440    1.2780   21.2990 C   0  0  0  0  0  0  0  0  0  0  0  0
    4.9950    0.9060   20.0040 C   0  0  0  0  0  0  0  0  0  0  0  0
    5.0530    0.8820   22.1720 H   0  0  0  0  0  0  0  0  0  0  0  0
    3.1230    2.3940   22.4320 H   0  0  0  0  0  0  0  0  0  0  0  0
    1.9460    3.2750   20.4280 H   0  0  0  0  0  0  0  0  0  0  0  0
    2.7280    2.6610   18.1560 H   0  0  0  0  0  0  0  0  0  0  0  0
    4.2960    1.4040   16.7020 H   0  0  0  0  0  0  0  0  0  0  0  0
    7.2500   -0.9960   18.2830 H   0  0  0  0  0  0  0  0  0  0  0  0
    7.8410    0.4680   21.4660 C   0  0  0  0  0  0  0  0  0  0  0  0
    8.3700   -0.3850   22.6210 C   0  0  2  0  0  0  0  0  0  0  0  0
    9.7480   -0.0060   23.0210 N   0  0  0  0  0  0  0  0  0  0  0  0
   10.1090   -0.7210   23.6810 H   0  0  0  0  0  0  0  0  0  0  0  0
   10.3920    0.0310   22.1920 H   0  0  0  0  0  0  0  0  0  0  0  0
    9.7790    0.9170   23.5000 H   0  0  0  0  0  0  0  0  0  0  0  0
    7.7050   -0.2410   23.4730 H   0  0  0  0  0  0  0  0  0  0  0  0
    8.6470    0.7250   20.7600 H   0  0  0  0  0  0  0  0  0  0  0  0
    7.3750    1.4090   21.7880 H   0  0  0  0  0  0  0  0  0  0  0  0
    7.8970   -2.7980   23.3520 C   0  0  0  0  0  0  0  0  0  0  0  0
    6.6030   -2.8960   23.8740 C   0  0  0  0  0  0  0  0  0  0  0  0
    6.3740   -3.6700   24.9990 C   0  0  0  0  0  0  0  0  0  0  0  0
    4.7520   -3.7860   25.6300 Cl  0  0  0  0  0  0  0  0  0  0  0  0
    7.4000   -4.3830   25.6180 C   0  0  0  0  0  0  0  0  0  0  0  0
    8.6790   -4.2890   25.1020 C   0  0  0  0  0  0  0  0  0  0  0  0
    8.9300   -3.5070   23.9810 C   0  0  0  0  0  0  0  0  0  0  0  0
   10.3390   -3.4140   23.5030 C   0  0  0  0  0  0  0  0  0  0  0  0
   11.2950   -3.7860   24.1860 O   0  0  0  0  0  0  0  0  0  0  0  0
    9.5100   -4.8120   25.5600 H   0  0  0  0  0  0  0  0  0  0  0  0
    7.1790   -5.0250   26.4630 H   0  0  0  0  0  0  0  0  0  0  0  0
    5.7720   -2.4040   23.3800 H   0  0  0  0  0  0  0  0  0  0  0  0
    9.7110   -1.8490   20.6230 H   0  0  0  0  0  0  0  0  0  0  0  0
    9.0040   -3.4400   21.0010 H   0  0  0  0  0  0  0  0  0  0  0  0
   12.5060   -3.4120   22.2100 H   0  0  0  0  0  0  0  0  0  0  0  0
   11.9290   -2.5280   20.7640 H   0  0  0  0  0  0  0  0  0  0  0  0
   13.1870   -2.2000   24.0540 H   0  0  0  0  0  0  0  0  0  0  0  0
   13.3420    0.7570   23.9400 H   0  0  0  0  0  0  0  0  0  0  0  0
   14.6020   -0.1140   23.1480 H   0  0  0  0  0  0  0  0  0  0  0  0
   14.3370   -0.3560   24.9200 H   0  0  0  0  0  0  0  0  0  0  0  0
  1  2  1  0
  1 54  1  0
  1 55  1  0
  1 56  1  0
  2  3  1  0
  2 53  1  0
  3  4  2  0
  3  5  1  0
  5  6  1  0
  5 51  1  0
  5 52  1  0
  6  7  1  0
  6 44  1  0
  8  7  1  6
  7 49  1  0
  7 50  1  0
  8  9  1  0
  8 29  1  0
  8 37  1  0
  9 10  2  0
  9 11  1  0
 11 12  1  0
 11 28  1  0
 12 13  2  0
 12 21  1  0
 13 14  1  0
 13 27  1  0
 14 15  2  0
 15 16  1  0
 15 26  1  0
 16 17  1  0
 16 21  2  0
 17 18  2  0
 17 25  1  0
 18 19  1  0
 18 24  1  0
 19 20  2  0
 19 23  1  0
 20 21  1  0
 20 22  1  0
 28 29  1  0
 28 35  1  0
 28 36  1  0
 29 30  1  0
 29 34  1  1
 30 31  1  0
 30 32  1  0
 30 33  1  0
 37 38  1  0
 37 43  2  0
 38 39  2  0
 38 48  1  0
 39 40  1  0
 39 41  1  0
 41 42  2  0
 41 47  1  0
 42 43  1  0
 42 46  1  0
 43 44  1  0
 44 45  2  0
M  CHG  1  30   1
M  END
>  <MODEL>  (3) 
       1

>  <ApoScore>  (3) 
25.5315

$$$$
mol3_score_29.6972
     RDKit          3D

 67 73  0  0  1  0  0  0  0  0999 V2000
    9.8940    2.7350   24.6890 O   0  0  0  0  0  0  0  0  0  0  0  0
    9.3940    1.6550   24.3860 C   0  0  0  0  0  0  0  0  0  0  0  0
   10.2160    0.4450   24.0510 C   0  0  0  0  0  0  0  0  0  0  0  0
   11.5530    0.4080   24.4500 C   0  0  0  0  0  0  0  0  0  0  0  0
   12.4410   -0.4880   23.8760 C   0  0  0  0  0  0  0  0  0  0  0  0
   11.9490   -1.3780   22.9190 C   0  0  0  0  0  0  0  0  0  0  0  0
   13.0570   -2.4470   22.0880 Cl  0  0  0  0  0  0  0  0  0  0  0  0
   10.5940   -1.4500   22.6300 C   0  0  0  0  0  0  0  0  0  0  0  0
    9.6850   -0.5450   23.2080 C   0  0  0  0  0  0  0  0  0  0  0  0
    8.1930   -0.5500   22.9020 C   0  0  1  0  0  0  0  0  0  0  0  0
    7.4780    0.1550   24.0980 C   0  0  0  0  0  0  0  0  0  0  0  0
    8.0470    1.4710   24.3090 N   0  0  0  0  0  0  0  0  0  0  0  0
    7.1830    2.5940   24.6240 C   0  0  0  0  0  0  0  0  0  0  0  0
    6.7660    2.6410   26.0740 C   0  0  0  0  0  0  0  0  0  0  0  0
    7.4250    3.3930   27.0220 C   0  0  0  0  0  0  0  0  0  0  0  0
    6.9610    3.3220   28.3320 C   0  0  0  0  0  0  0  0  0  0  0  0
    5.9400    2.5620   28.7100 N   0  0  0  0  0  0  0  0  0  0  0  0
    5.3060    1.8280   27.8060 N   0  0  0  0  0  0  0  0  0  0  0  0
    5.7060    1.8620   26.5400 C   0  0  0  0  0  0  0  0  0  0  0  0
    5.1370    1.2290   25.8590 H   0  0  0  0  0  0  0  0  0  0  0  0
    7.4340    3.8930   29.1270 H   0  0  0  0  0  0  0  0  0  0  0  0
    8.2930    4.0010   26.7710 H   0  0  0  0  0  0  0  0  0  0  0  0
    6.3020    2.5420   23.9720 H   0  0  0  0  0  0  0  0  0  0  0  0
    7.7390    3.4980   24.3750 H   0  0  0  0  0  0  0  0  0  0  0  0
    6.4080    0.2710   23.9000 H   0  0  0  0  0  0  0  0  0  0  0  0
    7.5660   -0.4540   25.0120 H   0  0  0  0  0  0  0  0  0  0  0  0
    7.8620    0.2410   21.6130 C   0  0  0  0  0  0  0  0  0  0  0  0
    8.3010    1.3170   21.2790 O   0  0  0  0  0  0  0  0  0  0  0  0
    6.9170   -0.4670   20.8980 N   0  0  0  0  0  0  0  0  0  0  0  0
    6.1750    0.1150   19.8400 C   0  0  0  0  0  0  0  0  0  0  0  0
    6.5150   -0.1870   18.5500 C   0  0  0  0  0  0  0  0  0  0  0  0
    5.8600    0.2700   17.4570 N   0  0  0  0  0  0  0  0  0  0  0  0
    4.8090    1.0250   17.6510 C   0  0  0  0  0  0  0  0  0  0  0  0
    4.3370    1.4060   18.9360 C   0  0  0  0  0  0  0  0  0  0  0  0
    3.2090    2.2510   19.0790 C   0  0  0  0  0  0  0  0  0  0  0  0
    2.7660    2.6090   20.3200 C   0  0  0  0  0  0  0  0  0  0  0  0
    3.4360    2.1360   21.4730 C   0  0  0  0  0  0  0  0  0  0  0  0
    4.5330    1.3190   21.3630 C   0  0  0  0  0  0  0  0  0  0  0  0
    5.0240    0.9370   20.0800 C   0  0  0  0  0  0  0  0  0  0  0  0
    5.0330    0.9660   22.2640 H   0  0  0  0  0  0  0  0  0  0  0  0
    3.0740    2.4280   22.4540 H   0  0  0  0  0  0  0  0  0  0  0  0
    1.9050    3.2620   20.4290 H   0  0  0  0  0  0  0  0  0  0  0  0
    2.7180    2.6060   18.1770 H   0  0  0  0  0  0  0  0  0  0  0  0
    4.2740    1.3840   16.7700 H   0  0  0  0  0  0  0  0  0  0  0  0
    7.3760   -0.8250   18.3540 H   0  0  0  0  0  0  0  0  0  0  0  0
    6.5190   -1.7180   21.5070 C   0  0  0  0  0  0  0  0  0  0  0  0
    7.5930   -1.9470   22.5710 C   0  0  2  0  0  0  0  0  0  0  0  0
    7.0670   -2.7570   23.7450 C   0  0  0  0  0  0  0  0  0  0  0  0
    8.1450   -3.0560   24.6560 N   0  0  0  0  0  0  0  0  0  0  0  0
    7.8830   -3.5570   25.8890 C   0  0  0  0  0  0  0  0  0  0  0  0
    8.9270   -3.7470   26.8100 C   0  0  0  0  0  0  0  0  0  0  0  0
    8.5670   -4.2480   28.0370 C   0  0  0  0  0  0  0  0  0  0  0  0
    7.3020   -4.5690   28.3540 N   0  0  0  0  0  0  0  0  0  0  0  0
    6.4120   -4.3700   27.3960 C   0  0  0  0  0  0  0  0  0  0  0  0
    6.6170   -3.8830   26.1720 N   0  0  0  0  0  0  0  0  0  0  0  0
    5.3820   -4.6330   27.6380 H   0  0  0  0  0  0  0  0  0  0  0  0
    9.3230   -4.4060   28.8080 H   0  0  0  0  0  0  0  0  0  0  0  0
    9.9500   -3.5290   26.5240 H   0  0  0  0  0  0  0  0  0  0  0  0
    9.0120   -2.5490   24.5380 H   0  0  0  0  0  0  0  0  0  0  0  0
    6.2720   -2.2110   24.2700 H   0  0  0  0  0  0  0  0  0  0  0  0
    6.6170   -3.6980   23.4090 H   0  0  0  0  0  0  0  0  0  0  0  0
    8.3810   -2.5400   22.0990 H   0  0  0  0  0  0  0  0  0  0  0  0
    6.4990   -2.5310   20.7720 H   0  0  0  0  0  0  0  0  0  0  0  0
    5.5130   -1.6540   21.9500 H   0  0  0  0  0  0  0  0  0  0  0  0
   10.2720   -2.2160   21.9380 H   0  0  0  0  0  0  0  0  0  0  0  0
   13.4970   -0.4840   24.1320 H   0  0  0  0  0  0  0  0  0  0  0  0
   11.8880    1.1550   25.1600 H   0  0  0  0  0  0  0  0  0  0  0  0
  1  2  2  0
  2  3  1  0
  2 12  1  0
  3  4  1  0
  3  9  2  0
  4  5  2  0
  4 67  1  0
  5  6  1  0
  5 66  1  0
  6  7  1  0
  6  8  2  0
  8  9  1  0
  8 65  1  0
 10  9  1  0
 10 11  1  1
 10 27  1  0
 10 47  1  0
 11 12  1  0
 11 25  1  0
 11 26  1  0
 12 13  1  0
 13 14  1  0
 13 23  1  0
 13 24  1  0
 14 15  2  0
 14 19  1  0
 15 16  1  0
 15 22  1  0
 16 17  2  0
 16 21  1  0
 17 18  1  0
 18 19  2  0
 19 20  1  0
 27 28  2  0
 27 29  1  0
 29 30  1  0
 29 46  1  0
 30 31  2  0
 30 39  1  0
 31 32  1  0
 31 45  1  0
 32 33  2  0
 33 34  1  0
 33 44  1  0
 34 35  1  0
 34 39  2  0
 35 36  2  0
 35 43  1  0
 36 37  1  0
 36 42  1  0
 37 38  2  0
 37 41  1  0
 38 39  1  0
 38 40  1  0
 46 47  1  0
 46 63  1  0
 46 64  1  0
 47 48  1  0
 47 62  1  6
 48 49  1  0
 48 60  1  0
 48 61  1  0
 49 50  1  0
 49 59  1  0
 50 51  2  0
 50 55  1  0
 51 52  1  0
 51 58  1  0
 52 53  2  0
 52 57  1  0
 53 54  1  0
 54 55  2  0
 54 56  1  0
M  END
>  <MODEL>  (4) 
       1

>  <ApoScore>  (4) 
29.6972

$$$$
mol4_score_18.2596
     RDKit          3D

 41 44  0  0  1  0  0  0  0  0999 V2000
    9.0630    2.1870   23.9950 C   0  0  0  0  0  0  0  0  0  0  0  0
    9.7170    1.2510   22.9760 C   0  0  1  0  0  0  0  0  0  0  0  0
   10.9790    0.6460   23.5190 C   0  0  0  0  0  0  0  0  0  0  0  0
   12.2920    1.2150   23.5260 C   0  0  0  0  0  0  0  0  0  0  0  0
   13.2290    0.3540   24.0050 C   0  0  0  0  0  0  0  0  0  0  0  0
   12.5310   -1.1310   24.5070 S   0  0  0  0  0  0  0  0  0  0  0  0
   10.9460   -0.5860   24.0810 C   0  0  0  0  0  0  0  0  0  0  0  0
    9.6650   -1.3440   24.2460 C   0  0  0  0  0  0  0  0  0  0  0  0
    8.7980   -1.1840   22.9940 C   0  0  0  0  0  0  0  0  0  0  0  0
    8.7760    0.2060   22.5060 N   0  0  0  0  0  0  0  0  0  0  0  0
    7.9500    0.5910   21.4820 C   0  0  0  0  0  0  0  0  0  0  0  0
    7.9890    1.7190   21.0030 O   0  0  0  0  0  0  0  0  0  0  0  0
    6.9710   -0.4430   20.9200 C   0  0  0  0  0  0  0  0  0  0  0  0
    6.1360    0.0880   19.7880 C   0  0  0  0  0  0  0  0  0  0  0  0
    6.4520   -0.2080   18.4860 C   0  0  0  0  0  0  0  0  0  0  0  0
    5.7860    0.2400   17.3890 N   0  0  0  0  0  0  0  0  0  0  0  0
    4.7550    1.0200   17.5940 C   0  0  0  0  0  0  0  0  0  0  0  0
    4.3110    1.4210   18.8840 C   0  0  0  0  0  0  0  0  0  0  0  0
    3.1880    2.2730   19.0510 C   0  0  0  0  0  0  0  0  0  0  0  0
    2.7820    2.6420   20.3040 C   0  0  0  0  0  0  0  0  0  0  0  0
    3.4780    2.1730   21.4430 C   0  0  0  0  0  0  0  0  0  0  0  0
    4.5680    1.3470   21.3040 C   0  0  0  0  0  0  0  0  0  0  0  0
    5.0180    0.9490   20.0160 C   0  0  0  0  0  0  0  0  0  0  0  0
    5.1040    1.0040   22.1840 H   0  0  0  0  0  0  0  0  0  0  0  0
    3.1450    2.4720   22.4330 H   0  0  0  0  0  0  0  0  0  0  0  0
    1.9290    3.3030   20.4350 H   0  0  0  0  0  0  0  0  0  0  0  0
    2.6680    2.6280   18.1620 H   0  0  0  0  0  0  0  0  0  0  0  0
    4.2120    1.3830   16.7190 H   0  0  0  0  0  0  0  0  0  0  0  0
    7.2970   -0.8610   18.2720 H   0  0  0  0  0  0  0  0  0  0  0  0
    6.3290   -0.8120   21.7290 H   0  0  0  0  0  0  0  0  0  0  0  0
    7.5570   -1.2970   20.5620 H   0  0  0  0  0  0  0  0  0  0  0  0
    9.1970   -1.8560   22.2200 H   0  0  0  0  0  0  0  0  0  0  0  0
    7.7740   -1.5260   23.2130 H   0  0  0  0  0  0  0  0  0  0  0  0
    9.8520   -2.4040   24.4400 H   0  0  0  0  0  0  0  0  0  0  0  0
    9.1140   -0.9460   25.1100 H   0  0  0  0  0  0  0  0  0  0  0  0
   14.2910    0.5050   24.0810 H   0  0  0  0  0  0  0  0  0  0  0  0
   12.5270    2.2200   23.2020 H   0  0  0  0  0  0  0  0  0  0  0  0
    9.9520    1.8350   22.0770 H   0  0  0  0  0  0  0  0  0  0  0  0
    8.7450    1.6230   24.8780 H   0  0  0  0  0  0  0  0  0  0  0  0
    9.8060    2.9310   24.2960 H   0  0  0  0  0  0  0  0  0  0  0  0
    8.1950    2.6960   23.5710 H   0  0  0  0  0  0  0  0  0  0  0  0
  1  2  1  0
  1 39  1  0
  1 40  1  0
  1 41  1  0
  2  3  1  0
  2 10  1  0
  2 38  1  6
  3  4  1  0
  3  7  2  0
  4  5  2  0
  4 37  1  0
  5  6  1  0
  5 36  1  0
  6  7  1  0
  7  8  1  0
  8  9  1  0
  8 34  1  0
  8 35  1  0
  9 10  1  0
  9 32  1  0
  9 33  1  0
 10 11  1  0
 11 12  2  0
 11 13  1  0
 13 14  1  0
 13 30  1  0
 13 31  1  0
 14 15  2  0
 14 23  1  0
 15 16  1  0
 15 29  1  0
 16 17  2  0
 17 18  1  0
 17 28  1  0
 18 19  1  0
 18 23  2  0
 19 20  2  0
 19 27  1  0
 20 21  1  0
 20 26  1  0
 21 22  2  0
 21 25  1  0
 22 23  1  0
 22 24  1  0
M  END
>  <MODEL>  (5) 
       1

>  <ApoScore>  (5) 
18.2596

$$$$
mol5_score_25.1721
     RDKit          3D

 50 54  0  0  1  0  0  0  0  0999 V2000
    9.8180    0.1290   23.0370 C   0  0  0  0  0  0  0  0  0  0  0  0
    8.4290   -0.3300   22.6160 C   0  0  1  0  0  0  0  0  0  0  0  0
    7.8710    0.4900   21.4440 C   0  0  0  0  0  0  0  0  0  0  0  0
    6.9020   -0.4060   20.8460 N   0  0  0  0  0  0  0  0  0  0  0  0
    6.0980    0.0210   19.7560 C   0  0  0  0  0  0  0  0  0  0  0  0
    6.4150   -0.3060   18.4610 C   0  0  0  0  0  0  0  0  0  0  0  0
    5.7670    0.1800   17.3690 N   0  0  0  0  0  0  0  0  0  0  0  0
    4.7730    1.0110   17.5710 C   0  0  0  0  0  0  0  0  0  0  0  0
    4.3160    1.4140   18.8600 C   0  0  0  0  0  0  0  0  0  0  0  0
    3.2080    2.2880   19.0350 C   0  0  0  0  0  0  0  0  0  0  0  0
    2.7880    2.6290   20.2930 C   0  0  0  0  0  0  0  0  0  0  0  0
    3.4600    2.1220   21.4290 C   0  0  0  0  0  0  0  0  0  0  0  0
    4.5400    1.2850   21.2820 C   0  0  0  0  0  0  0  0  0  0  0  0
    4.9960    0.9090   19.9900 C   0  0  0  0  0  0  0  0  0  0  0  0
    5.0500    0.8900   22.1520 H   0  0  0  0  0  0  0  0  0  0  0  0
    3.1150    2.3960   22.4220 H   0  0  0  0  0  0  0  0  0  0  0  0
    1.9300    3.2830   20.4260 H   0  0  0  0  0  0  0  0  0  0  0  0
    2.7020    2.6700   18.1520 H   0  0  0  0  0  0  0  0  0  0  0  0
    4.2670    1.4010   16.6870 H   0  0  0  0  0  0  0  0  0  0  0  0
    7.2390   -0.9850   18.2550 H   0  0  0  0  0  0  0  0  0  0  0  0
    7.1160   -1.7370   21.1580 C   0  0  0  0  0  0  0  0  0  0  0  0
    6.4520   -2.6450   20.7070 O   0  0  0  0  0  0  0  0  0  0  0  0
    8.2850   -1.8330   22.1750 C   0  0  1  0  0  0  0  0  0  0  0  0
    9.5300   -2.3930   21.4400 C   0  0  0  0  0  0  0  0  0  0  0  0
   10.6500   -2.6550   22.3360 N   0  0  0  0  0  0  0  0  0  0  0  0
   12.0250   -2.2870   22.0370 C   0  0  0  0  0  0  0  0  0  0  0  0
   12.6070   -1.3340   23.0120 C   0  0  0  0  0  0  0  0  0  0  0  0
   13.0330   -0.6090   23.8120 N   0  0  0  0  0  0  0  0  0  0  0  0
   12.0830   -1.8590   21.0370 H   0  0  0  0  0  0  0  0  0  0  0  0
   12.6580   -3.1780   22.0670 H   0  0  0  0  0  0  0  0  0  0  0  0
   10.4500   -3.4190   23.4560 C   0  0  0  0  0  0  0  0  0  0  0  0
   11.3710   -3.9290   24.0730 O   0  0  0  0  0  0  0  0  0  0  0  0
    9.0300   -3.5130   23.9320 C   0  0  0  0  0  0  0  0  0  0  0  0
    8.7790   -4.3180   25.0440 C   0  0  0  0  0  0  0  0  0  0  0  0
    7.5000   -4.4430   25.5550 C   0  0  0  0  0  0  0  0  0  0  0  0
    6.4780   -3.7310   24.9410 C   0  0  0  0  0  0  0  0  0  0  0  0
    5.2360   -3.8310   25.4420 F   0  0  0  0  0  0  0  0  0  0  0  0
    6.6930   -2.9270   23.8380 C   0  0  0  0  0  0  0  0  0  0  0  0
    7.9910   -2.7880   23.3250 C   0  0  0  0  0  0  0  0  0  0  0  0
    5.8380   -2.4370   23.3830 H   0  0  0  0  0  0  0  0  0  0  0  0
    7.2750   -5.0960   26.3930 H   0  0  0  0  0  0  0  0  0  0  0  0
    9.6180   -4.8250   25.5110 H   0  0  0  0  0  0  0  0  0  0  0  0
    9.2310   -3.3290   20.9580 H   0  0  0  0  0  0  0  0  0  0  0  0
    9.8320   -1.7000   20.6550 H   0  0  0  0  0  0  0  0  0  0  0  0
    8.6510    0.7760   20.7170 H   0  0  0  0  0  0  0  0  0  0  0  0
    7.3870    1.4200   21.7650 H   0  0  0  0  0  0  0  0  0  0  0  0
    7.7330   -0.2140   23.4570 H   0  0  0  0  0  0  0  0  0  0  0  0
    9.8150    1.1670   23.3810 H   0  0  0  0  0  0  0  0  0  0  0  0
   10.5190    0.0750   22.1970 H   0  0  0  0  0  0  0  0  0  0  0  0
   10.2060   -0.4940   23.8470 H   0  0  0  0  0  0  0  0  0  0  0  0
  1  2  1  0
  1 48  1  0
  1 49  1  0
  1 50  1  0
  2  3  1  0
  2 23  1  0
  2 47  1  1
  3  4  1  0
  3 45  1  0
  3 46  1  0
  4  5  1  0
  4 21  1  0
  5  6  2  0
  5 14  1  0
  6  7  1  0
  6 20  1  0
  7  8  2  0
  8  9  1  0
  8 19  1  0
  9 10  1  0
  9 14  2  0
 10 11  2  0
 10 18  1  0
 11 12  1  0
 11 17  1  0
 12 13  2  0
 12 16  1  0
 13 14  1  0
 13 15  1  0
 21 22  2  0
 23 21  1  0
 23 24  1  6
 23 39  1  0
 24 25  1  0
 24 43  1  0
 24 44  1  0
 25 26  1  0
 25 31  1  0
 26 27  1  0
 26 29  1  0
 26 30  1  0
 27 28  3  0
 31 32  2  0
 31 33  1  0
 33 34  2  0
 33 39  1  0
 34 35  1  0
 34 42  1  0
 35 36  2  0
 35 41  1  0
 36 37  1  0
 36 38  1  0
 38 39  2  0
 38 40  1  0
M  END
>  <MODEL>  (6) 
       1

>  <ApoScore>  (6) 
25.1721

$$$$
mol6_score_26.0164
     RDKit          3D

 65 69  0  0  0  0  0  0  0  0999 V2000
    8.0400   -8.0640   23.1400 C   0  0  0  0  0  0  0  0  0  0  0  0
    7.6380   -7.0300   24.2160 C   0  0  0  0  0  0  0  0  0  0  0  0
    7.4360   -5.6350   23.7310 C   0  0  0  0  0  0  0  0  0  0  0  0
    6.7540   -5.2220   22.8690 O   0  0  0  0  0  0  0  0  0  0  0  0
    9.1970   -3.6540   24.8920 N   0  0  1  0  0  0  0  0  0  0  0  0
   10.4570   -3.6120   24.1700 C   0  0  0  0  0  0  0  0  0  0  0  0
   10.2270   -3.2210   22.7220 C   0  0  0  0  0  0  0  0  0  0  0  0
    9.6600   -1.8140   22.6370 C   0  0  0  0  0  0  0  0  0  0  0  0
    8.5920   -1.5840   23.6930 C   0  0  0  0  0  0  0  0  0  0  0  0
    7.8250   -0.4120   23.7220 C   0  0  0  0  0  0  0  0  0  0  0  0
    8.1400    0.6900   22.8640 N   0  0  0  0  0  0  0  0  0  0  0  0
    8.8700    1.8130   23.4720 C   0  0  0  0  0  0  0  0  0  0  0  0
   10.3780    1.6230   23.4600 C   0  0  0  0  0  0  0  0  0  0  0  0
   11.1690    2.3750   22.5960 C   0  0  0  0  0  0  0  0  0  0  0  0
   12.5250    2.0880   22.4820 C   0  0  0  0  0  0  0  0  0  0  0  0
   13.0980    1.0380   23.1750 C   0  0  0  0  0  0  0  0  0  0  0  0
   12.3250    0.3500   24.0960 C   0  0  0  0  0  0  0  0  0  0  0  0
   13.0610   -0.9640   24.9570 Cl  0  0  0  0  0  0  0  0  0  0  0  0
   10.9870    0.6770   24.2940 C   0  0  0  0  0  0  0  0  0  0  0  0
   10.4120    0.1500   25.0530 H   0  0  0  0  0  0  0  0  0  0  0  0
   14.1370    0.7670   23.0100 H   0  0  0  0  0  0  0  0  0  0  0  0
   13.1740    2.6560   21.8400 H   0  0  0  0  0  0  0  0  0  0  0  0
   10.7020    3.1630   22.0070 H   0  0  0  0  0  0  0  0  0  0  0  0
    8.5200    1.9040   24.5100 H   0  0  0  0  0  0  0  0  0  0  0  0
    8.6050    2.7270   22.9310 H   0  0  0  0  0  0  0  0  0  0  0  0
    7.9230    0.7030   21.4970 C   0  0  0  0  0  0  0  0  0  0  0  0
    8.4310    1.5440   20.7760 O   0  0  0  0  0  0  0  0  0  0  0  0
    6.9970   -0.3790   20.9040 C   0  0  0  0  0  0  0  0  0  0  0  0
    6.1440    0.1220   19.7710 C   0  0  0  0  0  0  0  0  0  0  0  0
    6.4560   -0.1820   18.4730 C   0  0  0  0  0  0  0  0  0  0  0  0
    5.7700    0.2420   17.3800 N   0  0  0  0  0  0  0  0  0  0  0  0
    4.7270    1.0040   17.5890 C   0  0  0  0  0  0  0  0  0  0  0  0
    4.2730    1.3890   18.8800 C   0  0  0  0  0  0  0  0  0  0  0  0
    3.1340    2.2130   19.0650 C   0  0  0  0  0  0  0  0  0  0  0  0
    2.7380    2.5810   20.3210 C   0  0  0  0  0  0  0  0  0  0  0  0
    3.4630    2.1370   21.4510 C   0  0  0  0  0  0  0  0  0  0  0  0
    4.5670    1.3360   21.3010 C   0  0  0  0  0  0  0  0  0  0  0  0
    5.0010    0.9410   20.0070 C   0  0  0  0  0  0  0  0  0  0  0  0
    5.1190    1.0040   22.1770 H   0  0  0  0  0  0  0  0  0  0  0  0
    3.1410    2.4360   22.4450 H   0  0  0  0  0  0  0  0  0  0  0  0
    1.8730    3.2240   20.4590 H   0  0  0  0  0  0  0  0  0  0  0  0
    2.5950    2.5510   18.1830 H   0  0  0  0  0  0  0  0  0  0  0  0
    4.1790    1.3510   16.7110 H   0  0  0  0  0  0  0  0  0  0  0  0
    7.3180   -0.8120   18.2550 H   0  0  0  0  0  0  0  0  0  0  0  0
    7.6400   -1.1780   20.5130 H   0  0  0  0  0  0  0  0  0  0  0  0
    6.3860   -0.8170   21.6990 H   0  0  0  0  0  0  0  0  0  0  0  0
    6.7820   -0.2650   24.6320 C   0  0  0  0  0  0  0  0  0  0  0  0
    6.4400   -1.3130   25.4830 C   0  0  0  0  0  0  0  0  0  0  0  0
    7.2070   -2.4680   25.4920 C   0  0  0  0  0  0  0  0  0  0  0  0
    8.3400   -2.5580   24.6790 C   0  0  0  0  0  0  0  0  0  0  0  0
    6.9760   -3.3190   26.1300 H   0  0  0  0  0  0  0  0  0  0  0  0
    5.6100   -1.2120   26.1740 H   0  0  0  0  0  0  0  0  0  0  0  0
    6.2490    0.6800   24.6590 H   0  0  0  0  0  0  0  0  0  0  0  0
   10.4460   -1.0640   22.7410 H   0  0  0  0  0  0  0  0  0  0  0  0
    9.2530   -1.6600   21.6350 H   0  0  0  0  0  0  0  0  0  0  0  0
   11.1700   -3.2640   22.1690 H   0  0  0  0  0  0  0  0  0  0  0  0
    9.4870   -3.9040   22.2960 H   0  0  0  0  0  0  0  0  0  0  0  0
   10.9350   -4.5910   24.2630 H   0  0  0  0  0  0  0  0  0  0  0  0
   11.1360   -2.8800   24.6330 H   0  0  0  0  0  0  0  0  0  0  0  0
    8.6740   -4.5250   24.7380 H   0  0  0  0  0  0  0  0  0  0  0  0
    6.6780   -7.2710   24.6840 H   0  0  0  0  0  0  0  0  0  0  0  0
    8.4110   -6.9320   24.9870 H   0  0  0  0  0  0  0  0  0  0  0  0
    7.7030   -9.0680   23.3890 H   0  0  0  0  0  0  0  0  0  0  0  0
    9.1280   -8.1070   23.0630 H   0  0  0  0  0  0  0  0  0  0  0  0
    7.6290   -7.8110   22.1600 H   0  0  0  0  0  0  0  0  0  0  0  0
  1  2  1  0
  1 63  1  0
  1 64  1  0
  1 65  1  0
  2  3  1  0
  2 61  1  0
  2 62  1  0
  3  4  2  0
  3  5  1  0
  5  6  1  0
  5 50  1  0
  5 60  1  1
  6  7  1  0
  6 58  1  0
  6 59  1  0
  7  8  1  0
  7 56  1  0
  7 57  1  0
  8  9  1  0
  8 54  1  0
  8 55  1  0
  9 10  1  0
  9 50  2  0
 10 11  1  0
 10 47  2  0
 11 12  1  0
 11 26  1  0
 12 13  1  0
 12 24  1  0
 12 25  1  0
 13 14  2  0
 13 19  1  0
 14 15  1  0
 14 23  1  0
 15 16  2  0
 15 22  1  0
 16 17  1  0
 16 21  1  0
 17 18  1  0
 17 19  2  0
 19 20  1  0
 26 27  2  0
 26 28  1  0
 28 29  1  0
 28 45  1  0
 28 46  1  0
 29 30  2  0
 29 38  1  0
 30 31  1  0
 30 44  1  0
 31 32  2  0
 32 33  1  0
 32 43  1  0
 33 34  1  0
 33 38  2  0
 34 35  2  0
 34 42  1  0
 35 36  1  0
 35 41  1  0
 36 37  2  0
 36 40  1  0
 37 38  1  0
 37 39  1  0
 47 48  1  0
 47 53  1  0
 48 49  2  0
 48 52  1  0
 49 50  1  0
 49 51  1  0
M  CHG  1   5   1
M  END
>  <MODEL>  (7) 
       1

>  <ApoScore>  (7) 
26.0164

$$$$
mol7_score_15.3876
     RDKit          3D

 37 39  0  0  0  0  0  0  0  0999 V2000
    7.9910    1.7160   21.0080 O   0  0  0  0  0  0  0  0  0  0  0  0
    8.0700    0.5380   21.3280 C   0  0  0  0  0  0  0  0  0  0  0  0
    6.9830   -0.4590   20.9020 C   0  0  0  0  0  0  0  0  0  0  0  0
    6.1270    0.0700   19.7780 C   0  0  0  0  0  0  0  0  0  0  0  0
    6.4490   -0.2230   18.4750 C   0  0  0  0  0  0  0  0  0  0  0  0
    5.7930    0.2280   17.3730 N   0  0  0  0  0  0  0  0  0  0  0  0
    4.7660    1.0170   17.5860 C   0  0  0  0  0  0  0  0  0  0  0  0
    4.3160    1.4140   18.8750 C   0  0  0  0  0  0  0  0  0  0  0  0
    3.1970    2.2680   19.0420 C   0  0  0  0  0  0  0  0  0  0  0  0
    2.7880    2.6330   20.2960 C   0  0  0  0  0  0  0  0  0  0  0  0
    3.4850    2.1690   21.4320 C   0  0  0  0  0  0  0  0  0  0  0  0
    4.5790    1.3490   21.2960 C   0  0  0  0  0  0  0  0  0  0  0  0
    5.0170    0.9390   20.0060 C   0  0  0  0  0  0  0  0  0  0  0  0
    5.1220    1.0230   22.1770 H   0  0  0  0  0  0  0  0  0  0  0  0
    3.1520    2.4700   22.4220 H   0  0  0  0  0  0  0  0  0  0  0  0
    1.9320    3.2900   20.4230 H   0  0  0  0  0  0  0  0  0  0  0  0
    2.6850    2.6300   18.1540 H   0  0  0  0  0  0  0  0  0  0  0  0
    4.2290    1.3870   16.7140 H   0  0  0  0  0  0  0  0  0  0  0  0
    7.2990   -0.8740   18.2680 H   0  0  0  0  0  0  0  0  0  0  0  0
    6.3770   -0.7340   21.7770 H   0  0  0  0  0  0  0  0  0  0  0  0
    7.4940   -1.3680   20.5650 H   0  0  0  0  0  0  0  0  0  0  0  0
    9.1390    0.0400   22.0340 N   0  0  0  0  0  0  0  0  0  0  0  0
    9.1760   -1.1690   22.8710 C   0  0  0  0  0  0  0  0  0  0  0  0
   10.4940   -1.9460   22.7240 C   0  0  0  0  0  0  0  0  0  0  0  0
   11.7080   -1.0280   22.9190 C   0  0  0  0  0  0  0  0  0  0  0  0
   11.5260    0.1190   21.9240 C   0  0  0  0  0  0  0  0  0  0  0  0
   10.2750    0.9300   22.2690 C   0  0  0  0  0  0  0  0  0  0  0  0
   10.2750    1.2470   23.3240 H   0  0  0  0  0  0  0  0  0  0  0  0
   10.1250    1.8440   21.6800 H   0  0  0  0  0  0  0  0  0  0  0  0
   11.3100   -0.3820   20.9810 H   0  0  0  0  0  0  0  0  0  0  0  0
   12.4100    0.7440   21.7860 H   0  0  0  0  0  0  0  0  0  0  0  0
   12.6390   -1.5800   22.7350 H   0  0  0  0  0  0  0  0  0  0  0  0
   11.7780   -0.6560   23.9480 H   0  0  0  0  0  0  0  0  0  0  0  0
   10.5470   -2.3370   21.7020 H   0  0  0  0  0  0  0  0  0  0  0  0
   10.4970   -2.8170   23.3960 H   0  0  0  0  0  0  0  0  0  0  0  0
    8.3180   -1.8180   22.6630 H   0  0  0  0  0  0  0  0  0  0  0  0
    9.0820   -0.8450   23.9160 H   0  0  0  0  0  0  0  0  0  0  0  0
  1  2  2  0
  2  3  1  0
  2 22  1  0
  3  4  1  0
  3 20  1  0
  3 21  1  0
  4  5  2  0
  4 13  1  0
  5  6  1  0
  5 19  1  0
  6  7  2  0
  7  8  1  0
  7 18  1  0
  8  9  1  0
  8 13  2  0
  9 10  2  0
  9 17  1  0
 10 11  1  0
 10 16  1  0
 11 12  2  0
 11 15  1  0
 12 13  1  0
 12 14  1  0
 22 23  1  0
 22 27  1  0
 23 24  1  0
 23 36  1  0
 23 37  1  0
 24 25  1  0
 24 34  1  0
 24 35  1  0
 25 26  1  0
 25 32  1  0
 25 33  1  0
 26 27  1  0
 26 30  1  0
 26 31  1  0
 27 28  1  0
 27 29  1  0
M  END
>  <MODEL>  (8) 
       1

>  <ApoScore>  (8) 
15.3876

$$$$
mol8_score_25.0188
     RDKit          3D

 66 71  0  0  1  0  0  0  0  0999 V2000
    7.7360   -3.0280   23.2050 C   0  0  0  0  0  0  0  0  0  0  0  0
    7.9570   -1.9370   22.1760 C   0  0  1  0  0  0  0  0  0  0  0  0
    6.7720   -1.7940   21.2220 C   0  0  0  0  0  0  0  0  0  0  0  0
    6.8760   -0.4200   20.7950 N   0  0  0  0  0  0  0  0  0  0  0  0
    6.1170    0.1150   19.7420 C   0  0  0  0  0  0  0  0  0  0  0  0
    6.4360   -0.2300   18.4560 C   0  0  0  0  0  0  0  0  0  0  0  0
    5.7800    0.2210   17.3620 N   0  0  0  0  0  0  0  0  0  0  0  0
    4.7670    1.0280   17.5740 C   0  0  0  0  0  0  0  0  0  0  0  0
    4.3130    1.4290   18.8630 C   0  0  0  0  0  0  0  0  0  0  0  0
    3.1900    2.2810   19.0230 C   0  0  0  0  0  0  0  0  0  0  0  0
    2.7400    2.6130   20.2700 C   0  0  0  0  0  0  0  0  0  0  0  0
    3.4000    2.1200   21.4210 C   0  0  0  0  0  0  0  0  0  0  0  0
    4.5030    1.3140   21.2950 C   0  0  0  0  0  0  0  0  0  0  0  0
    4.9950    0.9560   20.0030 C   0  0  0  0  0  0  0  0  0  0  0  0
    5.0110    0.9560   22.1880 H   0  0  0  0  0  0  0  0  0  0  0  0
    3.0320    2.3900   22.4070 H   0  0  0  0  0  0  0  0  0  0  0  0
    1.8740    3.2600   20.3850 H   0  0  0  0  0  0  0  0  0  0  0  0
    2.7070    2.6540   18.1240 H   0  0  0  0  0  0  0  0  0  0  0  0
    4.2370    1.3990   16.6970 H   0  0  0  0  0  0  0  0  0  0  0  0
    7.2830   -0.8930   18.2770 H   0  0  0  0  0  0  0  0  0  0  0  0
    7.6450    0.3790   21.6030 C   0  0  0  0  0  0  0  0  0  0  0  0
    7.7800    1.5740   21.4430 O   0  0  0  0  0  0  0  0  0  0  0  0
    8.2320   -0.4860   22.7180 C   0  0  1  0  0  0  0  0  0  0  0  0
    7.4420   -0.1120   24.0010 C   0  0  0  0  0  0  0  0  0  0  0  0
    8.0610   -0.6040   25.2210 N   0  0  0  0  0  0  0  0  0  0  0  0
    7.2410   -0.9620   26.3730 C   0  0  0  0  0  0  0  0  0  0  0  0
    6.8530   -2.4510   26.3510 C   0  0  0  0  0  0  0  0  0  0  0  0
    5.7290   -2.8450   26.0730 O   0  0  0  0  0  0  0  0  0  0  0  0
    7.8810   -3.2880   26.6240 N   0  0  0  0  0  0  0  0  0  0  0  0
    7.6940   -4.7350   26.7020 C   0  0  0  0  0  0  0  0  0  0  0  0
    8.9950   -5.3640   27.0780 C   0  0  0  0  0  0  0  0  0  0  0  0
    9.4570   -5.7760   28.3050 C   0  0  0  0  0  0  0  0  0  0  0  0
   10.8340   -5.9420   28.1340 C   0  0  0  0  0  0  0  0  0  0  0  0
   11.2070   -5.7120   26.8870 N   0  0  0  0  0  0  0  0  0  0  0  0
   10.0760   -5.3550   26.2480 N   0  0  0  0  0  0  0  0  0  0  0  0
   10.2290   -4.6600   24.9880 C   0  0  0  0  0  0  0  0  0  0  0  0
    9.5230   -5.0200   24.2360 H   0  0  0  0  0  0  0  0  0  0  0  0
   11.2430   -4.8490   24.6590 H   0  0  0  0  0  0  0  0  0  0  0  0
   10.1140   -3.5770   25.1230 H   0  0  0  0  0  0  0  0  0  0  0  0
   11.5760   -6.1640   28.8910 H   0  0  0  0  0  0  0  0  0  0  0  0
    8.9050   -5.9250   29.2140 H   0  0  0  0  0  0  0  0  0  0  0  0
    6.9490   -4.9750   27.4660 H   0  0  0  0  0  0  0  0  0  0  0  0
    7.2890   -5.1230   25.7560 H   0  0  0  0  0  0  0  0  0  0  0  0
    8.8050   -2.9030   26.7870 H   0  0  0  0  0  0  0  0  0  0  0  0
    7.8370   -0.7260   27.2600 H   0  0  0  0  0  0  0  0  0  0  0  0
    6.3300   -0.3600   26.4040 H   0  0  0  0  0  0  0  0  0  0  0  0
    9.4110   -0.6610   25.3660 C   0  0  0  0  0  0  0  0  0  0  0  0
    9.9330   -1.0610   26.4020 O   0  0  0  0  0  0  0  0  0  0  0  0
   10.2600   -0.3030   24.2040 C   0  0  0  0  0  0  0  0  0  0  0  0
   11.6250   -0.1370   24.4330 C   0  0  0  0  0  0  0  0  0  0  0  0
   12.4680    0.1370   23.3760 C   0  0  0  0  0  0  0  0  0  0  0  0
   11.9440    0.2080   22.0850 C   0  0  0  0  0  0  0  0  0  0  0  0
   10.5860    0.0150   21.8630 C   0  0  0  0  0  0  0  0  0  0  0  0
    9.7090   -0.2150   22.9290 C   0  0  0  0  0  0  0  0  0  0  0  0
   10.1800    0.0450   20.8570 H   0  0  0  0  0  0  0  0  0  0  0  0
   12.6180    0.4000   21.2570 H   0  0  0  0  0  0  0  0  0  0  0  0
   13.5300    0.2880   23.5450 H   0  0  0  0  0  0  0  0  0  0  0  0
   11.9910   -0.2500   25.4480 H   0  0  0  0  0  0  0  0  0  0  0  0
    6.4210   -0.5090   23.9440 H   0  0  0  0  0  0  0  0  0  0  0  0
    7.3700    0.9830   24.0330 H   0  0  0  0  0  0  0  0  0  0  0  0
    5.8140   -1.9860   21.7330 H   0  0  0  0  0  0  0  0  0  0  0  0
    6.8200   -2.4690   20.3660 H   0  0  0  0  0  0  0  0  0  0  0  0
    8.8410   -2.1830   21.5730 H   0  0  0  0  0  0  0  0  0  0  0  0
    8.5600   -3.0370   23.9130 H   0  0  0  0  0  0  0  0  0  0  0  0
    6.8020   -2.8790   23.7570 H   0  0  0  0  0  0  0  0  0  0  0  0
    7.6830   -4.0160   22.7350 H   0  0  0  0  0  0  0  0  0  0  0  0
  1  2  1  0
  1 64  1  0
  1 65  1  0
  1 66  1  0
  2  3  1  0
  2 23  1  0
  2 63  1  6
  3  4  1  0
  3 61  1  0
  3 62  1  0
  4  5  1  0
  4 21  1  0
  5  6  2  0
  5 14  1  0
  6  7  1  0
  6 20  1  0
  7  8  2  0
  8  9  1  0
  8 19  1  0
  9 10  1  0
  9 14  2  0
 10 11  2  0
 10 18  1  0
 11 12  1  0
 11 17  1  0
 12 13  2  0
 12 16  1  0
 13 14  1  0
 13 15  1  0
 21 22  2  0
 23 21  1  0
 23 24  1  1
 23 54  1  0
 24 25  1  0
 24 59  1  0
 24 60  1  0
 25 26  1  0
 25 47  1  0
 26 27  1  0
 26 45  1  0
 26 46  1  0
 27 28  2  0
 27 29  1  0
 29 30  1  0
 29 44  1  0
 30 31  1  0
 30 42  1  0
 30 43  1  0
 31 32  2  0
 31 35  1  0
 32 33  1  0
 32 41  1  0
 33 34  2  0
 33 40  1  0
 34 35  1  0
 35 36  1  0
 36 37  1  0
 36 38  1  0
 36 39  1  0
 47 48  2  0
 47 49  1  0
 49 50  2  0
 49 54  1  0
 50 51  1  0
 50 58  1  0
 51 52  2  0
 51 57  1  0
 52 53  1  0
 52 56  1  0
 53 54  2  0
 53 55  1  0
M  END
>  <MODEL>  (9) 
       1

>  <ApoScore>  (9) 
25.0188

$$$$
mol9_score_22.8825
     RDKit          3D

 58 63  0  0  1  0  0  0  0  0999 V2000
    5.4340    5.0340   21.9870 C   0  0  0  0  0  0  0  0  0  0  0  0
    6.0360    4.2030   23.0760 C   0  0  0  0  0  0  0  0  0  0  0  0
    7.4210    3.9890   23.3130 C   0  0  0  0  0  0  0  0  0  0  0  0
    7.4430    3.1050   24.3410 C   0  0  0  0  0  0  0  0  0  0  0  0
    8.5720    2.4010   25.0320 C   0  0  0  0  0  0  0  0  0  0  0  0
    9.2120    1.4100   24.1780 N   0  0  0  0  0  0  0  0  0  0  0  0
    8.5370    0.1390   23.9950 C   0  0  0  0  0  0  0  0  0  0  0  0
    8.6450   -0.3950   22.5460 C   0  0  2  0  0  0  0  0  0  0  0  0
    7.8390    0.4710   21.5480 C   0  0  0  0  0  0  0  0  0  0  0  0
    7.9880    1.6530   21.3210 O   0  0  0  0  0  0  0  0  0  0  0  0
    6.9120   -0.3280   20.9070 N   0  0  0  0  0  0  0  0  0  0  0  0
    6.1570    0.1410   19.8030 C   0  0  0  0  0  0  0  0  0  0  0  0
    6.4700   -0.2210   18.5150 C   0  0  0  0  0  0  0  0  0  0  0  0
    5.8040    0.2050   17.4120 N   0  0  0  0  0  0  0  0  0  0  0  0
    4.7830    1.0090   17.6020 C   0  0  0  0  0  0  0  0  0  0  0  0
    4.3260    1.4280   18.8840 C   0  0  0  0  0  0  0  0  0  0  0  0
    3.1940    2.2710   19.0440 C   0  0  0  0  0  0  0  0  0  0  0  0
    2.7550    2.6130   20.2950 C   0  0  0  0  0  0  0  0  0  0  0  0
    3.4190    2.1280   21.4430 C   0  0  0  0  0  0  0  0  0  0  0  0
    4.5250    1.3230   21.3170 C   0  0  0  0  0  0  0  0  0  0  0  0
    5.0150    0.9690   20.0290 C   0  0  0  0  0  0  0  0  0  0  0  0
    5.0250    0.9220   22.1930 H   0  0  0  0  0  0  0  0  0  0  0  0
    3.0550    2.4010   22.4300 H   0  0  0  0  0  0  0  0  0  0  0  0
    1.8870    3.2590   20.4090 H   0  0  0  0  0  0  0  0  0  0  0  0
    2.6900    2.6320   18.1520 H   0  0  0  0  0  0  0  0  0  0  0  0
    4.2490    1.3560   16.7170 H   0  0  0  0  0  0  0  0  0  0  0  0
    7.3220   -0.8720   18.3160 H   0  0  0  0  0  0  0  0  0  0  0  0
    7.1670   -1.7370   21.0870 C   0  0  0  0  0  0  0  0  0  0  0  0
    8.0140   -1.8180   22.3740 C   0  0  2  0  0  0  0  0  0  0  0  0
    7.2080   -2.3780   23.5510 C   0  0  0  0  0  0  0  0  0  0  0  0
    6.8490   -3.3870   23.3090 H   0  0  0  0  0  0  0  0  0  0  0  0
    7.8340   -2.4690   24.4450 H   0  0  0  0  0  0  0  0  0  0  0  0
    6.3440   -1.7490   23.7880 H   0  0  0  0  0  0  0  0  0  0  0  0
    8.8170   -2.5420   22.2340 H   0  0  0  0  0  0  0  0  0  0  0  0
    7.7130   -2.1330   20.2240 H   0  0  0  0  0  0  0  0  0  0  0  0
    6.2190   -2.2800   21.1620 H   0  0  0  0  0  0  0  0  0  0  0  0
   10.1230   -0.3340   22.1590 C   0  0  0  0  0  0  0  0  0  0  0  0
   10.6710   -1.2960   21.3010 C   0  0  0  0  0  0  0  0  0  0  0  0
   12.0150   -1.2490   21.0010 C   0  0  0  0  0  0  0  0  0  0  0  0
   12.5200   -2.1800   20.1640 F   0  0  0  0  0  0  0  0  0  0  0  0
   12.8280   -0.2020   21.4450 C   0  0  0  0  0  0  0  0  0  0  0  0
   12.2770    0.7970   22.2180 C   0  0  0  0  0  0  0  0  0  0  0  0
   10.9350    0.7200   22.6060 C   0  0  0  0  0  0  0  0  0  0  0  0
   10.4140    1.7150   23.5960 C   0  0  0  0  0  0  0  0  0  0  0  0
   11.0350    2.7280   23.8910 O   0  0  0  0  0  0  0  0  0  0  0  0
   12.8600    1.6590   22.5240 H   0  0  0  0  0  0  0  0  0  0  0  0
   13.8630   -0.1530   21.1270 H   0  0  0  0  0  0  0  0  0  0  0  0
   10.0770   -2.0640   20.8220 H   0  0  0  0  0  0  0  0  0  0  0  0
    7.4910    0.2810   24.2700 H   0  0  0  0  0  0  0  0  0  0  0  0
    8.9690   -0.6070   24.6750 H   0  0  0  0  0  0  0  0  0  0  0  0
    9.3430    3.1360   25.2700 H   0  0  0  0  0  0  0  0  0  0  0  0
    8.2020    1.9380   25.9550 H   0  0  0  0  0  0  0  0  0  0  0  0
    6.1880    2.8320   24.7280 O   0  0  0  0  0  0  0  0  0  0  0  0
    5.2960    3.5230   23.9280 N   0  0  0  0  0  0  0  0  0  0  0  0
    8.2580    4.3890   22.7550 H   0  0  0  0  0  0  0  0  0  0  0  0
    6.0080    5.9530   21.8440 H   0  0  0  0  0  0  0  0  0  0  0  0
    4.3960    5.2870   22.2120 H   0  0  0  0  0  0  0  0  0  0  0  0
    5.4560    4.4740   21.0440 H   0  0  0  0  0  0  0  0  0  0  0  0
  1  2  1  0
  1 56  1  0
  1 57  1  0
  1 58  1  0
  2  3  1  0
  2 54  2  0
  3  4  2  0
  3 55  1  0
  4  5  1  0
  4 53  1  0
  5  6  1  0
  5 51  1  0
  5 52  1  0
  6  7  1  0
  6 44  1  0
  8  7  1  1
  7 49  1  0
  7 50  1  0
  8  9  1  0
  8 29  1  0
  8 37  1  0
  9 10  2  0
  9 11  1  0
 11 12  1  0
 11 28  1  0
 12 13  2  0
 12 21  1  0
 13 14  1  0
 13 27  1  0
 14 15  2  0
 15 16  1  0
 15 26  1  0
 16 17  1  0
 16 21  2  0
 17 18  2  0
 17 25  1  0
 18 19  1  0
 18 24  1  0
 19 20  2  0
 19 23  1  0
 20 21  1  0
 20 22  1  0
 28 29  1  0
 28 35  1  0
 28 36  1  0
 29 30  1  0
 29 34  1  6
 30 31  1  0
 30 32  1  0
 30 33  1  0
 37 38  2  0
 37 43  1  0
 38 39  1  0
 38 48  1  0
 39 40  1  0
 39 41  2  0
 41 42  1  0
 41 47  1  0
 42 43  2  0
 42 46  1  0
 43 44  1  0
 44 45  2  0
 53 54  1  0
M  END
>  <MODEL>  (10) 
       1

>  <ApoScore>  (10) 
22.8825

$$$$
mol10_score_22.7752
     RDKit          3D

 72 77  0  0  1  0  0  0  0  0999 V2000
    7.4850    8.3720   24.7140 C   0  0  0  0  0  0  0  0  0  0  0  0
    6.7710    7.3040   23.9060 C   0  0  1  0  0  0  0  0  0  0  0  0
    7.5110    5.9690   23.9190 C   0  0  0  0  0  0  0  0  0  0  0  0
    6.7190    4.9270   23.1700 N   0  0  0  0  0  0  0  0  0  0  0  0
    7.4410    3.6100   23.0060 C   0  0  0  0  0  0  0  0  0  0  0  0
    7.6300    2.8450   24.3230 C   0  0  0  0  0  0  0  0  0  0  0  0
    8.3750    1.6110   24.1520 N   0  0  0  0  0  0  0  0  0  0  0  0
    7.7110    0.3400   23.9420 C   0  0  0  0  0  0  0  0  0  0  0  0
    8.3910   -0.4690   22.7910 C   0  0  2  0  0  0  0  0  0  0  0  0
    8.0970    0.2280   21.4330 C   0  0  0  0  0  0  0  0  0  0  0  0
    8.6800    1.1620   20.9200 O   0  0  0  0  0  0  0  0  0  0  0  0
    6.9860   -0.3910   20.8940 N   0  0  0  0  0  0  0  0  0  0  0  0
    6.2250    0.1650   19.8340 C   0  0  0  0  0  0  0  0  0  0  0  0
    6.5610   -0.1330   18.5410 C   0  0  0  0  0  0  0  0  0  0  0  0
    5.8710    0.2840   17.4520 N   0  0  0  0  0  0  0  0  0  0  0  0
    4.8090    1.0210   17.6500 C   0  0  0  0  0  0  0  0  0  0  0  0
    4.3450    1.4130   18.9350 C   0  0  0  0  0  0  0  0  0  0  0  0
    3.2070    2.2450   19.0870 C   0  0  0  0  0  0  0  0  0  0  0  0
    2.7700    2.5970   20.3320 C   0  0  0  0  0  0  0  0  0  0  0  0
    3.4490    2.1250   21.4770 C   0  0  0  0  0  0  0  0  0  0  0  0
    4.5650    1.3310   21.3570 C   0  0  0  0  0  0  0  0  0  0  0  0
    5.0570    0.9610   20.0740 C   0  0  0  0  0  0  0  0  0  0  0  0
    5.0720    0.9940   22.2550 H   0  0  0  0  0  0  0  0  0  0  0  0
    3.0880    2.3980   22.4640 H   0  0  0  0  0  0  0  0  0  0  0  0
    1.9010    3.2380   20.4510 H   0  0  0  0  0  0  0  0  0  0  0  0
    2.7050    2.5990   18.1910 H   0  0  0  0  0  0  0  0  0  0  0  0
    4.2590    1.3540   16.7670 H   0  0  0  0  0  0  0  0  0  0  0  0
    7.4200   -0.7710   18.3440 H   0  0  0  0  0  0  0  0  0  0  0  0
    6.5370   -1.5660   21.6210 C   0  0  0  0  0  0  0  0  0  0  0  0
    7.7120   -1.8500   22.5690 C   0  0  2  0  0  0  0  0  0  0  0  0
    7.3480   -2.6030   23.8450 C   0  0  0  0  0  0  0  0  0  0  0  0
    6.5580   -2.0790   24.4010 H   0  0  0  0  0  0  0  0  0  0  0  0
    6.9950   -3.6160   23.6220 H   0  0  0  0  0  0  0  0  0  0  0  0
    8.2270   -2.6760   24.4980 H   0  0  0  0  0  0  0  0  0  0  0  0
    8.4220   -2.4570   21.9960 H   0  0  0  0  0  0  0  0  0  0  0  0
    6.3590   -2.3930   20.9240 H   0  0  0  0  0  0  0  0  0  0  0  0
    5.5930   -1.3900   22.1620 H   0  0  0  0  0  0  0  0  0  0  0  0
    9.8660   -0.5620   23.1150 C   0  0  0  0  0  0  0  0  0  0  0  0
   10.7050   -1.5010   22.4960 C   0  0  0  0  0  0  0  0  0  0  0  0
   12.0760   -1.4500   22.6730 C   0  0  0  0  0  0  0  0  0  0  0  0
   13.0980   -2.4800   21.7050 Cl  0  0  0  0  0  0  0  0  0  0  0  0
   12.6450   -0.5960   23.6230 C   0  0  0  0  0  0  0  0  0  0  0  0
   11.8100    0.2740   24.3020 C   0  0  0  0  0  0  0  0  0  0  0  0
   10.4520    0.3670   23.9890 C   0  0  0  0  0  0  0  0  0  0  0  0
    9.7200    1.6260   24.3680 C   0  0  0  0  0  0  0  0  0  0  0  0
   10.3150    2.6100   24.7770 O   0  0  0  0  0  0  0  0  0  0  0  0
   12.2080    0.9330   25.0640 H   0  0  0  0  0  0  0  0  0  0  0  0
   13.7150   -0.6140   23.8030 H   0  0  0  0  0  0  0  0  0  0  0  0
   10.3100   -2.2430   21.8130 H   0  0  0  0  0  0  0  0  0  0  0  0
    7.7650   -0.2540   24.8700 H   0  0  0  0  0  0  0  0  0  0  0  0
    6.6580    0.5440   23.7200 H   0  0  0  0  0  0  0  0  0  0  0  0
    6.6520    2.5970   24.7460 H   0  0  0  0  0  0  0  0  0  0  0  0
    8.1820    3.4520   25.0450 H   0  0  0  0  0  0  0  0  0  0  0  0
    6.8660    3.0000   22.2950 H   0  0  0  0  0  0  0  0  0  0  0  0
    8.4220    3.8270   22.5630 H   0  0  0  0  0  0  0  0  0  0  0  0
    5.3280    4.8370   23.7560 C   0  0  0  0  0  0  0  0  0  0  0  0
    4.6510    6.2110   23.8150 C   0  0  2  0  0  0  0  0  0  0  0  0
    4.1790    6.7110   22.4550 C   0  0  0  0  0  0  0  0  0  0  0  0
    3.4390    6.0190   22.0400 H   0  0  0  0  0  0  0  0  0  0  0  0
    4.9980    6.7890   21.7310 H   0  0  0  0  0  0  0  0  0  0  0  0
    3.7180    7.6990   22.5590 H   0  0  0  0  0  0  0  0  0  0  0  0
    5.4770    7.1600   24.4800 O   0  0  0  0  0  0  0  0  0  0  0  0
    3.7760    6.1180   24.4690 H   0  0  0  0  0  0  0  0  0  0  0  0
    5.4040    4.4490   24.7730 H   0  0  0  0  0  0  0  0  0  0  0  0
    4.7270    4.1460   23.1590 H   0  0  0  0  0  0  0  0  0  0  0  0
    6.6000    5.2860   22.2020 H   0  0  0  0  0  0  0  0  0  0  0  0
    8.4990    6.0750   23.4580 H   0  0  0  0  0  0  0  0  0  0  0  0
    7.6390    5.6500   24.9580 H   0  0  0  0  0  0  0  0  0  0  0  0
    6.6840    7.6330   22.8570 H   0  0  0  0  0  0  0  0  0  0  0  0
    7.5620    8.0540   25.7600 H   0  0  0  0  0  0  0  0  0  0  0  0
    6.9210    9.3090   24.6790 H   0  0  0  0  0  0  0  0  0  0  0  0
    8.4930    8.5560   24.3280 H   0  0  0  0  0  0  0  0  0  0  0  0
  1  2  1  0
  1 70  1  0
  1 71  1  0
  1 72  1  0
  2  3  1  0
  2 62  1  0
  2 69  1  6
  3  4  1  0
  3 67  1  0
  3 68  1  0
  4  5  1  0
  4 56  1  0
  4 66  1  0
  5  6  1  0
  5 54  1  0
  5 55  1  0
  6  7  1  0
  6 52  1  0
  6 53  1  0
  7  8  1  0
  7 45  1  0
  9  8  1  1
  8 50  1  0
  8 51  1  0
  9 10  1  0
  9 30  1  0
  9 38  1  0
 10 11  2  0
 10 12  1  0
 12 13  1  0
 12 29  1  0
 13 14  2  0
 13 22  1  0
 14 15  1  0
 14 28  1  0
 15 16  2  0
 16 17  1  0
 16 27  1  0
 17 18  1  0
 17 22  2  0
 18 19  2  0
 18 26  1  0
 19 20  1  0
 19 25  1  0
 20 21  2  0
 20 24  1  0
 21 22  1  0
 21 23  1  0
 29 30  1  0
 29 36  1  0
 29 37  1  0
 30 31  1  0
 30 35  1  6
 31 32  1  0
 31 33  1  0
 31 34  1  0
 38 39  2  0
 38 44  1  0
 39 40  1  0
 39 49  1  0
 40 41  1  0
 40 42  2  0
 42 43  1  0
 42 48  1  0
 43 44  2  0
 43 47  1  0
 44 45  1  0
 45 46  2  0
 56 57  1  0
 56 64  1  0
 56 65  1  0
 57 58  1  0
 57 62  1  0
 57 63  1  1
 58 59  1  0
 58 60  1  0
 58 61  1  0
M  CHG  1   4   1
M  END
>  <MODEL>  (11) 
       1

>  <ApoScore>  (11) 
22.7752

$$$$
mol11_score_18.3343
     RDKit          3D

 54 57  0  0  1  0  0  0  0  0999 V2000
    4.8800    1.9200   25.3050 C   0  0  0  0  0  0  0  0  0  0  0  0
    6.1350    1.9630   24.6600 O   0  0  0  0  0  0  0  0  0  0  0  0
    6.4400    2.9880   23.8110 C   0  0  0  0  0  0  0  0  0  0  0  0
    5.5510    4.0270   23.5130 C   0  0  0  0  0  0  0  0  0  0  0  0
    5.9380    5.0310   22.6250 C   0  0  0  0  0  0  0  0  0  0  0  0
    7.1960    5.0150   22.0450 C   0  0  0  0  0  0  0  0  0  0  0  0
    8.0720    3.9820   22.3660 C   0  0  0  0  0  0  0  0  0  0  0  0
    7.7270    2.9600   23.2370 C   0  0  0  0  0  0  0  0  0  0  0  0
    8.6570    1.7850   23.5080 C   0  0  2  0  0  0  0  0  0  0  0  0
   10.1650    2.0530   23.3440 C   0  0  0  0  0  0  0  0  0  0  0  0
   10.9930    0.8540   23.8290 C   0  0  2  0  0  0  0  0  0  0  0  0
   12.4890    1.0790   23.6100 C   0  0  0  0  0  0  0  0  0  0  0  0
   12.8390    1.9810   24.1220 H   0  0  0  0  0  0  0  0  0  0  0  0
   13.0860    0.2310   23.9680 H   0  0  0  0  0  0  0  0  0  0  0  0
   12.7100    1.2050   22.5440 H   0  0  0  0  0  0  0  0  0  0  0  0
   10.5200   -0.4270   23.1390 C   0  0  0  0  0  0  0  0  0  0  0  0
    8.9990   -0.6100   23.2630 C   0  0  0  0  0  0  0  0  0  0  0  0
    8.2610    0.5600   22.7860 N   0  0  0  0  0  0  0  0  0  0  0  0
    7.9300    0.6540   21.4230 C   0  0  0  0  0  0  0  0  0  0  0  0
    8.3430    1.5290   20.6940 O   0  0  0  0  0  0  0  0  0  0  0  0
    6.9760   -0.4310   20.8950 C   0  0  0  0  0  0  0  0  0  0  0  0
    6.1120    0.0830   19.7660 C   0  0  0  0  0  0  0  0  0  0  0  0
    6.4260   -0.2100   18.4650 C   0  0  0  0  0  0  0  0  0  0  0  0
    5.7590    0.2380   17.3650 N   0  0  0  0  0  0  0  0  0  0  0  0
    4.7350    1.0290   17.5760 C   0  0  0  0  0  0  0  0  0  0  0  0
    4.2890    1.4230   18.8660 C   0  0  0  0  0  0  0  0  0  0  0  0
    3.1740    2.2810   19.0430 C   0  0  0  0  0  0  0  0  0  0  0  0
    2.7660    2.6460   20.2970 C   0  0  0  0  0  0  0  0  0  0  0  0
    3.4640    2.1650   21.4310 C   0  0  0  0  0  0  0  0  0  0  0  0
    4.5480    1.3320   21.2890 C   0  0  0  0  0  0  0  0  0  0  0  0
    4.9930    0.9380   19.9990 C   0  0  0  0  0  0  0  0  0  0  0  0
    5.0730    0.9790   22.1740 H   0  0  0  0  0  0  0  0  0  0  0  0
    3.1370    2.4670   22.4230 H   0  0  0  0  0  0  0  0  0  0  0  0
    1.9120    3.3090   20.4260 H   0  0  0  0  0  0  0  0  0  0  0  0
    2.6570    2.6510   18.1600 H   0  0  0  0  0  0  0  0  0  0  0  0
    4.2020    1.3970   16.6970 H   0  0  0  0  0  0  0  0  0  0  0  0
    7.2750   -0.8540   18.2400 H   0  0  0  0  0  0  0  0  0  0  0  0
    6.3700   -0.8300   21.7210 H   0  0  0  0  0  0  0  0  0  0  0  0
    7.5890   -1.2640   20.5240 H   0  0  0  0  0  0  0  0  0  0  0  0
    8.6690   -1.4840   22.6980 H   0  0  0  0  0  0  0  0  0  0  0  0
    8.7410   -0.7780   24.3180 H   0  0  0  0  0  0  0  0  0  0  0  0
   10.7970   -0.3850   22.0780 H   0  0  0  0  0  0  0  0  0  0  0  0
   11.0500   -1.2960   23.5530 H   0  0  0  0  0  0  0  0  0  0  0  0
   10.8240    0.7380   24.9100 H   0  0  0  0  0  0  0  0  0  0  0  0
   10.4530    2.9450   23.9160 H   0  0  0  0  0  0  0  0  0  0  0  0
   10.3990    2.2600   22.2930 H   0  0  0  0  0  0  0  0  0  0  0  0
    8.5160    1.5220   24.5610 H   0  0  0  0  0  0  0  0  0  0  0  0
    9.0410    3.9590   21.8800 H   0  0  0  0  0  0  0  0  0  0  0  0
    7.5020    5.7840   21.3400 H   0  0  0  0  0  0  0  0  0  0  0  0
    5.2510    5.8350   22.3820 H   0  0  0  0  0  0  0  0  0  0  0  0
    4.5630    4.0700   23.9640 H   0  0  0  0  0  0  0  0  0  0  0  0
    4.6980    2.7760   25.9650 H   0  0  0  0  0  0  0  0  0  0  0  0
    4.9060    1.0230   25.9190 H   0  0  0  0  0  0  0  0  0  0  0  0
    4.0300    1.8270   24.6160 H   0  0  0  0  0  0  0  0  0  0  0  0
  1  2  1  0
  1 52  1  0
  1 53  1  0
  1 54  1  0
  2  3  1  0
  3  4  2  0
  3  8  1  0
  4  5  1  0
  4 51  1  0
  5  6  2  0
  5 50  1  0
  6  7  1  0
  6 49  1  0
  7  8  2  0
  7 48  1  0
  8  9  1  0
  9 10  1  0
  9 18  1  0
  9 47  1  1
 10 11  1  0
 10 45  1  0
 10 46  1  0
 11 12  1  0
 11 16  1  0
 11 44  1  1
 12 13  1  0
 12 14  1  0
 12 15  1  0
 16 17  1  0
 16 42  1  0
 16 43  1  0
 17 18  1  0
 17 40  1  0
 17 41  1  0
 18 19  1  0
 19 20  2  0
 19 21  1  0
 21 22  1  0
 21 38  1  0
 21 39  1  0
 22 23  2  0
 22 31  1  0
 23 24  1  0
 23 37  1  0
 24 25  2  0
 25 26  1  0
 25 36  1  0
 26 27  1  0
 26 31  2  0
 27 28  2  0
 27 35  1  0
 28 29  1  0
 28 34  1  0
 29 30  2  0
 29 33  1  0
 30 31  1  0
 30 32  1  0
M  END
>  <MODEL>  (12) 
       1

>  <ApoScore>  (12) 
18.3343

$$$$
mol12_score_14.2846
     RDKit          3D

 47 50  0  0  1  0  0  0  0  0999 V2000
    5.5080   -2.4330   20.9600 O   0  0  0  0  0  0  0  0  0  0  0  0
    6.1730   -1.6490   21.6200 C   0  0  0  0  0  0  0  0  0  0  0  0
    6.9110   -0.4830   20.9190 C   0  0  0  0  0  0  0  0  0  0  0  0
    6.1130    0.0890   19.7690 C   0  0  0  0  0  0  0  0  0  0  0  0
    6.4210   -0.2150   18.4690 C   0  0  0  0  0  0  0  0  0  0  0  0
    5.7580    0.2340   17.3670 N   0  0  0  0  0  0  0  0  0  0  0  0
    4.7380    1.0300   17.5750 C   0  0  0  0  0  0  0  0  0  0  0  0
    4.2870    1.4240   18.8650 C   0  0  0  0  0  0  0  0  0  0  0  0
    3.1660    2.2750   19.0440 C   0  0  0  0  0  0  0  0  0  0  0  0
    2.7510    2.6270   20.2980 C   0  0  0  0  0  0  0  0  0  0  0  0
    3.4420    2.1390   21.4320 C   0  0  0  0  0  0  0  0  0  0  0  0
    4.5310    1.3170   21.2880 C   0  0  0  0  0  0  0  0  0  0  0  0
    4.9890    0.9390   19.9970 C   0  0  0  0  0  0  0  0  0  0  0  0
    5.0470    0.9530   22.1730 H   0  0  0  0  0  0  0  0  0  0  0  0
    3.1080    2.4270   22.4240 H   0  0  0  0  0  0  0  0  0  0  0  0
    1.8940    3.2830   20.4360 H   0  0  0  0  0  0  0  0  0  0  0  0
    2.6460    2.6450   18.1620 H   0  0  0  0  0  0  0  0  0  0  0  0
    4.2010    1.3990   16.6980 H   0  0  0  0  0  0  0  0  0  0  0  0
    7.2670   -0.8680   18.2480 H   0  0  0  0  0  0  0  0  0  0  0  0
    7.2060    0.3100   21.6160 H   0  0  0  0  0  0  0  0  0  0  0  0
    7.8450   -0.8980   20.5160 H   0  0  0  0  0  0  0  0  0  0  0  0
    6.2950   -1.7860   22.9730 N   0  0  0  0  0  0  0  0  0  0  0  0
    7.0320   -0.9350   23.8930 C   0  0  0  0  0  0  0  0  0  0  0  0
    6.6590   -1.4630   25.2810 C   0  0  2  0  0  0  0  0  0  0  0  0
    7.7130   -1.1190   26.2940 C   0  0  0  0  0  0  0  0  0  0  0  0
    7.3320   -1.5260   27.5670 F   0  0  0  0  0  0  0  0  0  0  0  0
    8.6100   -1.6280   25.9710 H   0  0  0  0  0  0  0  0  0  0  0  0
    7.9580   -0.0490   26.3400 H   0  0  0  0  0  0  0  0  0  0  0  0
    6.3150   -2.9630   25.0680 C   0  0  0  0  0  0  0  0  0  0  0  0
    5.3900   -3.5340   26.1610 C   0  0  0  0  0  0  0  0  0  0  0  0
    6.2460   -4.3530   27.1520 C   0  0  0  0  0  0  0  0  0  0  0  0
    7.6470   -4.4770   26.5230 C   0  0  0  0  0  0  0  0  0  0  0  0
    7.5210   -3.9280   25.0920 C   0  0  0  0  0  0  0  0  0  0  0  0
    7.3240   -4.7610   24.4070 H   0  0  0  0  0  0  0  0  0  0  0  0
    8.4430   -3.4580   24.7380 H   0  0  0  0  0  0  0  0  0  0  0  0
    8.3750   -3.9020   27.1000 H   0  0  0  0  0  0  0  0  0  0  0  0
    7.9940   -5.5150   26.5150 H   0  0  0  0  0  0  0  0  0  0  0  0
    6.3020   -3.8660   28.1290 H   0  0  0  0  0  0  0  0  0  0  0  0
    5.7940   -5.3380   27.3100 H   0  0  0  0  0  0  0  0  0  0  0  0
    4.8380   -2.7410   26.6730 H   0  0  0  0  0  0  0  0  0  0  0  0
    4.6380   -4.1820   25.6990 H   0  0  0  0  0  0  0  0  0  0  0  0
    5.6580   -2.9010   23.6740 C   0  0  0  0  0  0  0  0  0  0  0  0
    5.7900   -3.8280   23.1140 H   0  0  0  0  0  0  0  0  0  0  0  0
    4.5790   -2.7380   23.7670 H   0  0  0  0  0  0  0  0  0  0  0  0
    5.7510   -0.9670   25.6320 H   0  0  0  0  0  0  0  0  0  0  0  0
    6.7390    0.1150   23.8080 H   0  0  0  0  0  0  0  0  0  0  0  0
    8.1140   -0.9940   23.7040 H   0  0  0  0  0  0  0  0  0  0  0  0
  1  2  2  0
  2  3  1  0
  2 22  1  0
  3  4  1  0
  3 20  1  0
  3 21  1  0
  4  5  2  0
  4 13  1  0
  5  6  1  0
  5 19  1  0
  6  7  2  0
  7  8  1  0
  7 18  1  0
  8  9  1  0
  8 13  2  0
  9 10  2  0
  9 17  1  0
 10 11  1  0
 10 16  1  0
 11 12  2  0
 11 15  1  0
 12 13  1  0
 12 14  1  0
 22 23  1  0
 22 42  1  0
 23 24  1  0
 23 46  1  0
 23 47  1  0
 24 25  1  0
 24 29  1  0
 24 45  1  1
 25 26  1  0
 25 27  1  0
 25 28  1  0
 29 30  1  0
 29 33  1  0
 29 42  1  0
 30 31  1  0
 30 40  1  0
 30 41  1  0
 31 32  1  0
 31 38  1  0
 31 39  1  0
 32 33  1  0
 32 36  1  0
 32 37  1  0
 33 34  1  0
 33 35  1  0
 42 43  1  0
 42 44  1  0
M  END
>  <MODEL>  (13) 
       1

>  <ApoScore>  (13) 
14.2846

$$$$
mol13_score_24.1441
     RDKit          3D

 67 72  0  0  1  0  0  0  0  0999 V2000
    6.3860    4.3550   21.2600 C   0  0  0  0  0  0  0  0  0  0  0  0
    7.3650    3.9010   22.2230 N   0  0  0  0  0  0  0  0  0  0  0  0
    6.9400    3.2710   23.3430 C   0  0  0  0  0  0  0  0  0  0  0  0
    5.7580    3.0510   23.5850 O   0  0  0  0  0  0  0  0  0  0  0  0
    8.0330    2.8810   24.3260 C   0  0  0  0  0  0  0  0  0  0  0  0
    8.6900    1.6470   23.9630 N   0  0  0  0  0  0  0  0  0  0  0  0
    7.8720    0.4550   23.8210 C   0  0  0  0  0  0  0  0  0  0  0  0
    8.2680   -0.3640   22.5730 C   0  0  2  0  0  0  0  0  0  0  0  0
    7.8750    0.3560   21.2620 C   0  0  0  0  0  0  0  0  0  0  0  0
    8.3810    1.3560   20.7930 O   0  0  0  0  0  0  0  0  0  0  0  0
    6.8700   -0.3600   20.6500 N   0  0  0  0  0  0  0  0  0  0  0  0
    6.1040    0.1780   19.5930 C   0  0  0  0  0  0  0  0  0  0  0  0
    6.4190   -0.1280   18.2990 C   0  0  0  0  0  0  0  0  0  0  0  0
    5.7110    0.3040   17.2290 N   0  0  0  0  0  0  0  0  0  0  0  0
    4.6740    1.0740   17.4680 C   0  0  0  0  0  0  0  0  0  0  0  0
    4.2390    1.4620   18.7700 C   0  0  0  0  0  0  0  0  0  0  0  0
    3.1200    2.3110   18.9890 C   0  0  0  0  0  0  0  0  0  0  0  0
    2.7380    2.6530   20.2590 C   0  0  0  0  0  0  0  0  0  0  0  0
    3.4510    2.1620   21.3760 C   0  0  0  0  0  0  0  0  0  0  0  0
    4.5380    1.3430   21.1900 C   0  0  0  0  0  0  0  0  0  0  0  0
    4.9640    0.9800   19.8800 C   0  0  0  0  0  0  0  0  0  0  0  0
    5.1140    1.0270   22.0550 H   0  0  0  0  0  0  0  0  0  0  0  0
    3.1730    2.4610   22.3840 H   0  0  0  0  0  0  0  0  0  0  0  0
    1.8920    3.3170   20.4160 H   0  0  0  0  0  0  0  0  0  0  0  0
    2.5860    2.6950   18.1240 H   0  0  0  0  0  0  0  0  0  0  0  0
    4.1180    1.4320   16.6020 H   0  0  0  0  0  0  0  0  0  0  0  0
    7.2800   -0.7620   18.0970 H   0  0  0  0  0  0  0  0  0  0  0  0
    6.3630   -1.4570   21.4330 C   0  0  0  0  0  0  0  0  0  0  0  0
    7.4780   -1.7030   22.4430 C   0  0  2  0  0  0  0  0  0  0  0  0
    6.8810   -2.3560   23.6900 C   0  0  0  0  0  0  0  0  0  0  0  0
    7.8110   -2.5690   24.7100 O   0  0  0  0  0  0  0  0  0  0  0  0
    8.8000   -3.5140   24.3750 C   0  0  0  0  0  0  0  0  0  0  0  0
    9.9720   -3.2670   25.2770 C   0  0  0  0  0  0  0  0  0  0  0  0
   11.2860   -2.8030   24.6810 C   0  0  0  0  0  0  0  0  0  0  0  0
   11.1150   -4.2280   25.1490 C   0  0  0  0  0  0  0  0  0  0  0  0
   11.6290   -4.6110   26.0290 H   0  0  0  0  0  0  0  0  0  0  0  0
   11.0080   -4.9930   24.4220 H   0  0  0  0  0  0  0  0  0  0  0  0
   11.9360   -2.1580   25.2660 H   0  0  0  0  0  0  0  0  0  0  0  0
   11.3000   -2.6230   23.6150 H   0  0  0  0  0  0  0  0  0  0  0  0
    9.6980   -2.8620   26.2490 H   0  0  0  0  0  0  0  0  0  0  0  0
    8.3820   -4.5320   24.4880 H   0  0  0  0  0  0  0  0  0  0  0  0
    9.1270   -3.4180   23.3240 H   0  0  0  0  0  0  0  0  0  0  0  0
    6.4090   -3.3120   23.4120 H   0  0  0  0  0  0  0  0  0  0  0  0
    6.0870   -1.7240   24.1060 H   0  0  0  0  0  0  0  0  0  0  0  0
    8.1710   -2.4140   21.9860 H   0  0  0  0  0  0  0  0  0  0  0  0
    5.4100   -1.2030   21.9260 H   0  0  0  0  0  0  0  0  0  0  0  0
    6.1730   -2.3320   20.8030 H   0  0  0  0  0  0  0  0  0  0  0  0
    9.7820   -0.4710   22.5510 C   0  0  0  0  0  0  0  0  0  0  0  0
   10.3740   -1.3690   21.6630 C   0  0  0  0  0  0  0  0  0  0  0  0
   11.7490   -1.4780   21.5760 C   0  0  0  0  0  0  0  0  0  0  0  0
   12.3050   -2.8080   20.6010 Cl  0  0  0  0  0  0  0  0  0  0  0  0
   12.5870   -0.6110   22.2980 C   0  0  0  0  0  0  0  0  0  0  0  0
   12.0040    0.3480   23.1020 C   0  0  0  0  0  0  0  0  0  0  0  0
   10.6180    0.4250   23.2250 C   0  0  0  0  0  0  0  0  0  0  0  0
   10.0590    1.5840   23.9810 C   0  0  0  0  0  0  0  0  0  0  0  0
   10.7720    2.4170   24.5190 O   0  0  0  0  0  0  0  0  0  0  0  0
   12.6240    1.0510   23.6470 H   0  0  0  0  0  0  0  0  0  0  0  0
   13.6700   -0.6280   22.2750 H   0  0  0  0  0  0  0  0  0  0  0  0
    9.7760   -1.9950   21.0050 H   0  0  0  0  0  0  0  0  0  0  0  0
    7.9710   -0.1830   24.7070 H   0  0  0  0  0  0  0  0  0  0  0  0
    6.8340    0.7850   23.7390 H   0  0  0  0  0  0  0  0  0  0  0  0
    8.8120    3.6490   24.3570 H   0  0  0  0  0  0  0  0  0  0  0  0
    7.5530    2.8050   25.3070 H   0  0  0  0  0  0  0  0  0  0  0  0
    8.3150    3.7350   21.9100 H   0  0  0  0  0  0  0  0  0  0  0  0
    5.9300    3.5050   20.7330 H   0  0  0  0  0  0  0  0  0  0  0  0
    6.8480    5.0460   20.5500 H   0  0  0  0  0  0  0  0  0  0  0  0
    5.5990    4.8870   21.7990 H   0  0  0  0  0  0  0  0  0  0  0  0
  1  2  1  0
  1 65  1  0
  1 66  1  0
  1 67  1  0
  2  3  1  0
  2 64  1  0
  3  4  2  0
  3  5  1  0
  5  6  1  0
  5 62  1  0
  5 63  1  0
  6  7  1  0
  6 55  1  0
  8  7  1  1
  7 60  1  0
  7 61  1  0
  8  9  1  0
  8 29  1  0
  8 48  1  0
  9 10  2  0
  9 11  1  0
 11 12  1  0
 11 28  1  0
 12 13  2  0
 12 21  1  0
 13 14  1  0
 13 27  1  0
 14 15  2  0
 15 16  1  0
 15 26  1  0
 16 17  1  0
 16 21  2  0
 17 18  2  0
 17 25  1  0
 18 19  1  0
 18 24  1  0
 19 20  2  0
 19 23  1  0
 20 21  1  0
 20 22  1  0
 28 29  1  0
 28 46  1  0
 28 47  1  0
 29 30  1  0
 29 45  1  6
 30 31  1  0
 30 43  1  0
 30 44  1  0
 31 32  1  0
 32 33  1  0
 32 41  1  0
 32 42  1  0
 33 34  1  0
 33 35  1  0
 33 40  1  0
 34 35  1  0
 34 38  1  0
 34 39  1  0
 35 36  1  0
 35 37  1  0
 48 49  1  0
 48 54  2  0
 49 50  2  0
 49 59  1  0
 50 51  1  0
 50 52  1  0
 52 53  2  0
 52 58  1  0
 53 54  1  0
 53 57  1  0
 54 55  1  0
 55 56  2  0
M  END
>  <MODEL>  (14) 
       1

>  <ApoScore>  (14) 
24.1441

$$$$
mol14_score_22.8126
     RDKit          3D

 67 73  0  0  1  0  0  0  0  0999 V2000
    9.9350   -1.1400   22.5830 C   0  0  0  0  0  0  0  0  0  0  0  0
    8.5730   -0.5320   22.2600 C   0  0  1  0  0  0  0  0  0  0  0  0
    8.3460   -0.3120   20.7510 C   0  0  0  0  0  0  0  0  0  0  0  0
    6.8920   -0.2830   20.6400 N   0  0  0  0  0  0  0  0  0  0  0  0
    6.1670    0.2150   19.5450 C   0  0  0  0  0  0  0  0  0  0  0  0
    6.5210   -0.1010   18.2550 C   0  0  0  0  0  0  0  0  0  0  0  0
    5.8570    0.3260   17.1520 N   0  0  0  0  0  0  0  0  0  0  0  0
    4.8220    1.1110   17.3430 C   0  0  0  0  0  0  0  0  0  0  0  0
    4.3530    1.5170   18.6230 C   0  0  0  0  0  0  0  0  0  0  0  0
    3.2200    2.3600   18.7710 C   0  0  0  0  0  0  0  0  0  0  0  0
    2.7730    2.7190   20.0110 C   0  0  0  0  0  0  0  0  0  0  0  0
    3.4550    2.2700   21.1620 C   0  0  0  0  0  0  0  0  0  0  0  0
    4.5710    1.4860   21.0490 C   0  0  0  0  0  0  0  0  0  0  0  0
    5.0360    1.0690   19.7680 C   0  0  0  0  0  0  0  0  0  0  0  0
    5.0790    1.1660   21.9500 H   0  0  0  0  0  0  0  0  0  0  0  0
    3.0910    2.5340   22.1500 H   0  0  0  0  0  0  0  0  0  0  0  0
    1.9040    3.3620   20.1220 H   0  0  0  0  0  0  0  0  0  0  0  0
    2.7280    2.7110   17.8690 H   0  0  0  0  0  0  0  0  0  0  0  0
    4.2880    1.4580   16.4580 H   0  0  0  0  0  0  0  0  0  0  0  0
    7.3670   -0.7640   18.0660 H   0  0  0  0  0  0  0  0  0  0  0  0
    6.2740   -0.9580   21.6770 C   0  0  0  0  0  0  0  0  0  0  0  0
    5.0870   -1.1900   21.7370 O   0  0  0  0  0  0  0  0  0  0  0  0
    7.3580   -1.4050   22.6760 C   0  0  1  0  0  0  0  0  0  0  0  0
    7.6420   -2.8760   22.3650 C   0  0  0  0  0  0  0  0  0  0  0  0
    6.4210   -3.6210   22.5410 N   0  0  0  0  0  0  0  0  0  0  0  0
    6.2130   -4.7070   21.6020 C   0  0  0  0  0  0  0  0  0  0  0  0
    7.1990   -5.8270   21.8930 C   0  0  0  0  0  0  0  0  0  0  0  0
    6.7990   -6.4840   23.1700 N   0  0  2  0  0  0  0  0  0  0  0  0
    7.9220   -6.8500   24.1210 C   0  0  0  0  0  0  0  0  0  0  0  0
    7.8130   -8.3780   24.1990 C   0  0  2  0  0  0  0  0  0  0  0  0
    7.3370   -8.7810   22.8140 C   0  0  0  0  0  0  0  0  0  0  0  0
    6.1390   -7.8320   22.9160 C   0  0  1  0  0  0  0  0  0  0  0  0
    5.5320   -8.2770   24.2500 C   0  0  0  0  0  0  0  0  0  0  0  0
    6.6710   -8.7170   25.0030 O   0  0  0  0  0  0  0  0  0  0  0  0
    4.8140   -9.0990   24.1400 H   0  0  0  0  0  0  0  0  0  0  0  0
    5.0220   -7.4410   24.7580 H   0  0  0  0  0  0  0  0  0  0  0  0
    5.4610   -7.8020   22.0590 H   0  0  0  0  0  0  0  0  0  0  0  0
    7.0860   -9.8440   22.7760 H   0  0  0  0  0  0  0  0  0  0  0  0
    8.0100   -8.5130   22.0030 H   0  0  0  0  0  0  0  0  0  0  0  0
    8.7140   -8.8460   24.5850 H   0  0  0  0  0  0  0  0  0  0  0  0
    7.7650   -6.3840   25.0980 H   0  0  0  0  0  0  0  0  0  0  0  0
    8.8970   -6.5360   23.7320 H   0  0  0  0  0  0  0  0  0  0  0  0
    6.1090   -5.8690   23.6640 H   0  0  0  0  0  0  0  0  0  0  0  0
    7.2640   -6.5550   21.0800 H   0  0  0  0  0  0  0  0  0  0  0  0
    8.2010   -5.3910   22.0030 H   0  0  0  0  0  0  0  0  0  0  0  0
    5.1790   -5.0400   21.6930 H   0  0  0  0  0  0  0  0  0  0  0  0
    6.3480   -4.2980   20.5990 H   0  0  0  0  0  0  0  0  0  0  0  0
    5.8850   -3.6560   23.7870 C   0  0  0  0  0  0  0  0  0  0  0  0
    5.2080   -4.6150   24.1860 O   0  0  0  0  0  0  0  0  0  0  0  0
    6.2160   -2.4850   24.6580 C   0  0  0  0  0  0  0  0  0  0  0  0
    5.8790   -2.5220   26.0120 C   0  0  0  0  0  0  0  0  0  0  0  0
    6.1510   -1.4410   26.8290 C   0  0  0  0  0  0  0  0  0  0  0  0
    6.7230   -0.2990   26.2670 C   0  0  0  0  0  0  0  0  0  0  0  0
    6.9460    1.1210   27.2480 Cl  0  0  0  0  0  0  0  0  0  0  0  0
    7.0990   -0.2570   24.9350 C   0  0  0  0  0  0  0  0  0  0  0  0
    6.8920   -1.3710   24.1170 C   0  0  0  0  0  0  0  0  0  0  0  0
    7.5540    0.6430   24.5360 H   0  0  0  0  0  0  0  0  0  0  0  0
    5.9230   -1.4730   27.8900 H   0  0  0  0  0  0  0  0  0  0  0  0
    5.4000   -3.4140   26.4060 H   0  0  0  0  0  0  0  0  0  0  0  0
    7.9960   -2.9960   21.3400 H   0  0  0  0  0  0  0  0  0  0  0  0
    8.4090   -3.2470   23.0610 H   0  0  0  0  0  0  0  0  0  0  0  0
    8.7780   -1.1480   20.1790 H   0  0  0  0  0  0  0  0  0  0  0  0
    8.7800    0.6230   20.3930 H   0  0  0  0  0  0  0  0  0  0  0  0
    8.4780    0.4500   22.7360 H   0  0  0  0  0  0  0  0  0  0  0  0
   10.7560   -0.4550   22.3490 H   0  0  0  0  0  0  0  0  0  0  0  0
   10.0900   -2.0510   21.9940 H   0  0  0  0  0  0  0  0  0  0  0  0
   10.0070   -1.4230   23.6400 H   0  0  0  0  0  0  0  0  0  0  0  0
  1  2  1  0
  1 65  1  0
  1 66  1  0
  1 67  1  0
  2  3  1  0
  2 23  1  0
  2 64  1  1
  3  4  1  0
  3 62  1  0
  3 63  1  0
  4  5  1  0
  4 21  1  0
  5  6  2  0
  5 14  1  0
  6  7  1  0
  6 20  1  0
  7  8  2  0
  8  9  1  0
  8 19  1  0
  9 10  1  0
  9 14  2  0
 10 11  2  0
 10 18  1  0
 11 12  1  0
 11 17  1  0
 12 13  2  0
 12 16  1  0
 13 14  1  0
 13 15  1  0
 21 22  2  0
 23 21  1  0
 23 24  1  6
 23 56  1  0
 24 25  1  0
 24 60  1  0
 24 61  1  0
 25 26  1  0
 25 48  1  0
 26 27  1  0
 26 46  1  0
 26 47  1  0
 27 28  1  0
 27 44  1  0
 27 45  1  0
 28 29  1  0
 28 32  1  0
 28 43  1  1
 29 30  1  0
 29 41  1  0
 29 42  1  0
 30 31  1  0
 30 34  1  0
 30 40  1  1
 31 32  1  0
 31 38  1  0
 31 39  1  0
 32 33  1  0
 32 37  1  6
 33 34  1  0
 33 35  1  0
 33 36  1  0
 48 49  2  0
 48 50  1  0
 50 51  2  0
 50 56  1  0
 51 52  1  0
 51 59  1  0
 52 53  2  0
 52 58  1  0
 53 54  1  0
 53 55  1  0
 55 56  2  0
 55 57  1  0
M  CHG  1  28   1
M  END
>  <MODEL>  (15) 
       1

>  <ApoScore>  (15) 
22.8126

$$$$
mol15_score_23.1976
     RDKit          3D

 72 77  0  0  1  0  0  0  0  0999 V2000
    6.9590    7.7590   21.5490 C   0  0  0  0  0  0  0  0  0  0  0  0
    5.9770    6.6090   21.4660 C   0  0  1  0  0  0  0  0  0  0  0  0
    6.7080    5.2660   21.3850 C   0  0  0  0  0  0  0  0  0  0  0  0
    6.9330    4.6790   22.7310 N   0  0  2  0  0  0  0  0  0  0  0  0
    7.6370    3.3870   22.6080 C   0  0  0  0  0  0  0  0  0  0  0  0
    8.1140    2.9060   23.9680 C   0  0  0  0  0  0  0  0  0  0  0  0
    8.8070    1.6520   23.8370 N   0  0  0  0  0  0  0  0  0  0  0  0
    8.0860    0.3940   23.7740 C   0  0  0  0  0  0  0  0  0  0  0  0
    8.4660   -0.4330   22.5200 C   0  0  2  0  0  0  0  0  0  0  0  0
    8.0260    0.2000   21.1830 C   0  0  0  0  0  0  0  0  0  0  0  0
    8.5880    1.0730   20.5510 O   0  0  0  0  0  0  0  0  0  0  0  0
    6.8790   -0.4440   20.7800 N   0  0  0  0  0  0  0  0  0  0  0  0
    6.1120    0.0850   19.7230 C   0  0  0  0  0  0  0  0  0  0  0  0
    6.4540   -0.2090   18.4290 C   0  0  0  0  0  0  0  0  0  0  0  0
    5.7690    0.2310   17.3480 N   0  0  0  0  0  0  0  0  0  0  0  0
    4.7450    1.0190   17.5760 C   0  0  0  0  0  0  0  0  0  0  0  0
    4.3120    1.4260   18.8720 C   0  0  0  0  0  0  0  0  0  0  0  0
    3.2130    2.3010   19.0550 C   0  0  0  0  0  0  0  0  0  0  0  0
    2.8180    2.6640   20.3120 C   0  0  0  0  0  0  0  0  0  0  0  0
    3.5020    2.1770   21.4460 C   0  0  0  0  0  0  0  0  0  0  0  0
    4.5800    1.3370   21.3020 C   0  0  0  0  0  0  0  0  0  0  0  0
    5.0070    0.9400   19.9990 C   0  0  0  0  0  0  0  0  0  0  0  0
    5.1100    1.0010   22.1880 H   0  0  0  0  0  0  0  0  0  0  0  0
    3.1700    2.4730   22.4360 H   0  0  0  0  0  0  0  0  0  0  0  0
    1.9730    3.3310   20.4430 H   0  0  0  0  0  0  0  0  0  0  0  0
    2.7060    2.6690   18.1700 H   0  0  0  0  0  0  0  0  0  0  0  0
    4.1920    1.3780   16.7090 H   0  0  0  0  0  0  0  0  0  0  0  0
    7.3190   -0.8410   18.2390 H   0  0  0  0  0  0  0  0  0  0  0  0
    6.4540   -1.5150   21.6620 C   0  0  0  0  0  0  0  0  0  0  0  0
    7.7350   -1.8020   22.4450 C   0  0  2  0  0  0  0  0  0  0  0  0
    7.5600   -2.5550   23.7520 C   0  0  0  0  0  0  0  0  0  0  0  0
    7.0970   -3.5290   23.5670 H   0  0  0  0  0  0  0  0  0  0  0  0
    8.5300   -2.7210   24.2370 H   0  0  0  0  0  0  0  0  0  0  0  0
    6.9210   -1.9960   24.4450 H   0  0  0  0  0  0  0  0  0  0  0  0
    8.3240   -2.4270   21.7700 H   0  0  0  0  0  0  0  0  0  0  0  0
    5.6280   -1.2230   22.3290 H   0  0  0  0  0  0  0  0  0  0  0  0
    6.1310   -2.3800   21.0760 H   0  0  0  0  0  0  0  0  0  0  0  0
    9.9600   -0.5040   22.5180 C   0  0  0  0  0  0  0  0  0  0  0  0
   10.5700   -1.5140   21.8030 C   0  0  0  0  0  0  0  0  0  0  0  0
   11.9300   -1.5530   21.6590 C   0  0  0  0  0  0  0  0  0  0  0  0
   12.4090   -2.8760   20.6440 Cl  0  0  0  0  0  0  0  0  0  0  0  0
   12.7440   -0.6000   22.2820 C   0  0  0  0  0  0  0  0  0  0  0  0
   12.1400    0.4380   22.9560 C   0  0  0  0  0  0  0  0  0  0  0  0
   10.7590    0.5070   23.0450 C   0  0  0  0  0  0  0  0  0  0  0  0
   10.1490    1.7260   23.6280 C   0  0  0  0  0  0  0  0  0  0  0  0
   10.8130    2.7270   23.8770 O   0  0  0  0  0  0  0  0  0  0  0  0
   12.7350    1.2210   23.4130 H   0  0  0  0  0  0  0  0  0  0  0  0
   13.8230   -0.6000   22.2920 H   0  0  0  0  0  0  0  0  0  0  0  0
   10.0060   -2.3040   21.3380 H   0  0  0  0  0  0  0  0  0  0  0  0
    8.3620   -0.2090   24.6530 H   0  0  0  0  0  0  0  0  0  0  0  0
    7.0100    0.5960   23.8170 H   0  0  0  0  0  0  0  0  0  0  0  0
    8.8350    3.6280   24.3570 H   0  0  0  0  0  0  0  0  0  0  0  0
    7.2940    2.7930   24.6850 H   0  0  0  0  0  0  0  0  0  0  0  0
    8.5020    3.5070   21.9430 H   0  0  0  0  0  0  0  0  0  0  0  0
    6.9730    2.6480   22.1420 H   0  0  0  0  0  0  0  0  0  0  0  0
    5.6810    4.5950   23.6110 C   0  0  1  0  0  0  0  0  0  0  0  0
    6.0040    5.1250   25.0100 C   0  0  0  0  0  0  0  0  0  0  0  0
    5.1490    5.0020   25.6790 H   0  0  0  0  0  0  0  0  0  0  0  0
    6.2550    6.1870   24.9360 H   0  0  0  0  0  0  0  0  0  0  0  0
    6.8600    4.6110   25.4560 H   0  0  0  0  0  0  0  0  0  0  0  0
    4.5880    5.4110   22.9350 C   0  0  0  0  0  0  0  0  0  0  0  0
    5.1090    6.6750   22.5890 O   0  0  0  0  0  0  0  0  0  0  0  0
    3.7520    5.5710   23.6220 H   0  0  0  0  0  0  0  0  0  0  0  0
    4.1970    4.8870   22.0500 H   0  0  0  0  0  0  0  0  0  0  0  0
    5.3720    3.5440   23.6500 H   0  0  0  0  0  0  0  0  0  0  0  0
    7.5910    5.3080   23.2360 H   0  0  0  0  0  0  0  0  0  0  0  0
    7.6830    5.4210   20.9200 H   0  0  0  0  0  0  0  0  0  0  0  0
    6.1650    4.5390   20.7640 H   0  0  0  0  0  0  0  0  0  0  0  0
    5.3770    6.7010   20.5480 H   0  0  0  0  0  0  0  0  0  0  0  0
    6.4550    8.7260   21.5480 H   0  0  0  0  0  0  0  0  0  0  0  0
    7.5770    7.6730   22.4490 H   0  0  0  0  0  0  0  0  0  0  0  0
    7.6140    7.6970   20.6810 H   0  0  0  0  0  0  0  0  0  0  0  0
  1  2  1  0
  1 70  1  0
  1 71  1  0
  1 72  1  0
  2  3  1  0
  2 62  1  0
  2 69  1  6
  3  4  1  0
  3 67  1  0
  3 68  1  0
  4  5  1  0
  4 56  1  0
  4 66  1  1
  5  6  1  0
  5 54  1  0
  5 55  1  0
  6  7  1  0
  6 52  1  0
  6 53  1  0
  7  8  1  0
  7 45  1  0
  9  8  1  1
  8 50  1  0
  8 51  1  0
  9 10  1  0
  9 30  1  0
  9 38  1  0
 10 11  2  0
 10 12  1  0
 12 13  1  0
 12 29  1  0
 13 14  2  0
 13 22  1  0
 14 15  1  0
 14 28  1  0
 15 16  2  0
 16 17  1  0
 16 27  1  0
 17 18  1  0
 17 22  2  0
 18 19  2  0
 18 26  1  0
 19 20  1  0
 19 25  1  0
 20 21  2  0
 20 24  1  0
 21 22  1  0
 21 23  1  0
 29 30  1  0
 29 36  1  0
 29 37  1  0
 30 31  1  0
 30 35  1  6
 31 32  1  0
 31 33  1  0
 31 34  1  0
 38 39  2  0
 38 44  1  0
 39 40  1  0
 39 49  1  0
 40 41  1  0
 40 42  2  0
 42 43  1  0
 42 48  1  0
 43 44  2  0
 43 47  1  0
 44 45  1  0
 45 46  2  0
 56 57  1  0
 56 61  1  0
 56 65  1  1
 57 58  1  0
 57 59  1  0
 57 60  1  0
 61 62  1  0
 61 63  1  0
 61 64  1  0
M  CHG  1   4   1
M  END
>  <MODEL>  (16) 
       1

>  <ApoScore>  (16) 
23.1976

$$$$
mol16_score_14.0186
     RDKit          3D

 47 50  0  0  1  0  0  0  0  0999 V2000
    8.6410   -4.5100   23.9880 C   0  0  0  0  0  0  0  0  0  0  0  0
    7.3760   -3.7650   24.4100 C   0  0  1  0  0  0  0  0  0  0  0  0
    7.6870   -2.3580   24.9370 C   0  0  0  0  0  0  0  0  0  0  0  0
    7.4170   -1.3750   23.7820 C   0  0  2  0  0  0  0  0  0  0  0  0
    6.6530   -0.1510   24.2620 C   0  0  0  0  0  0  0  0  0  0  0  0
    5.3220   -0.2550   24.6700 C   0  0  0  0  0  0  0  0  0  0  0  0
    4.6280    0.8590   25.1240 C   0  0  0  0  0  0  0  0  0  0  0  0
    5.2620    2.0970   25.1900 C   0  0  0  0  0  0  0  0  0  0  0  0
    6.5980    2.2060   24.8140 C   0  0  0  0  0  0  0  0  0  0  0  0
    7.2890    1.0850   24.3600 C   0  0  0  0  0  0  0  0  0  0  0  0
    8.3360    1.1720   24.0730 H   0  0  0  0  0  0  0  0  0  0  0  0
    7.1020    3.1660   24.8560 H   0  0  0  0  0  0  0  0  0  0  0  0
    4.7160    2.9710   25.5310 H   0  0  0  0  0  0  0  0  0  0  0  0
    3.5900    0.7590   25.4280 H   0  0  0  0  0  0  0  0  0  0  0  0
    4.8200   -1.2180   24.6460 H   0  0  0  0  0  0  0  0  0  0  0  0
    6.6990   -2.1660   22.7890 N   0  0  0  0  0  0  0  0  0  0  0  0
    6.2490   -1.7390   21.5620 C   0  0  0  0  0  0  0  0  0  0  0  0
    5.3930   -2.3670   20.9590 O   0  0  0  0  0  0  0  0  0  0  0  0
    6.9130   -0.4920   20.9200 C   0  0  0  0  0  0  0  0  0  0  0  0
    6.1110    0.0830   19.7730 C   0  0  0  0  0  0  0  0  0  0  0  0
    6.4200   -0.2150   18.4700 C   0  0  0  0  0  0  0  0  0  0  0  0
    5.7600    0.2400   17.3680 N   0  0  0  0  0  0  0  0  0  0  0  0
    4.7370    1.0320   17.5780 C   0  0  0  0  0  0  0  0  0  0  0  0
    4.2860    1.4200   18.8700 C   0  0  0  0  0  0  0  0  0  0  0  0
    3.1650    2.2710   19.0460 C   0  0  0  0  0  0  0  0  0  0  0  0
    2.7530    2.6270   20.2990 C   0  0  0  0  0  0  0  0  0  0  0  0
    3.4490    2.1400   21.4300 C   0  0  0  0  0  0  0  0  0  0  0  0
    4.5350    1.3120   21.2970 C   0  0  0  0  0  0  0  0  0  0  0  0
    4.9880    0.9340   20.0040 C   0  0  0  0  0  0  0  0  0  0  0  0
    5.0470    0.9460   22.1890 H   0  0  0  0  0  0  0  0  0  0  0  0
    3.1090    2.4250   22.4190 H   0  0  0  0  0  0  0  0  0  0  0  0
    1.8960    3.2840   20.4380 H   0  0  0  0  0  0  0  0  0  0  0  0
    2.6480    2.6420   18.1630 H   0  0  0  0  0  0  0  0  0  0  0  0
    4.2020    1.4000   16.6980 H   0  0  0  0  0  0  0  0  0  0  0  0
    7.2650   -0.8670   18.2450 H   0  0  0  0  0  0  0  0  0  0  0  0
    7.1480    0.2830   21.6610 H   0  0  0  0  0  0  0  0  0  0  0  0
    7.8820   -0.8260   20.5210 H   0  0  0  0  0  0  0  0  0  0  0  0
    6.4170   -3.5250   23.2370 C   0  0  0  0  0  0  0  0  0  0  0  0
    5.3650   -3.6560   23.5260 H   0  0  0  0  0  0  0  0  0  0  0  0
    6.5950   -4.2150   22.4100 H   0  0  0  0  0  0  0  0  0  0  0  0
    8.3630   -1.0400   23.3430 H   0  0  0  0  0  0  0  0  0  0  0  0
    7.0640   -2.1220   25.8030 H   0  0  0  0  0  0  0  0  0  0  0  0
    8.7170   -2.2770   25.2880 H   0  0  0  0  0  0  0  0  0  0  0  0
    6.8860   -4.3590   25.1840 H   0  0  0  0  0  0  0  0  0  0  0  0
    9.1810   -3.9580   23.2120 H   0  0  0  0  0  0  0  0  0  0  0  0
    8.4010   -5.5030   23.5960 H   0  0  0  0  0  0  0  0  0  0  0  0
    9.3250   -4.6410   24.8330 H   0  0  0  0  0  0  0  0  0  0  0  0
  1  2  1  0
  1 45  1  0
  1 46  1  0
  1 47  1  0
  2  3  1  0
  2 38  1  0
  2 44  1  1
  3  4  1  0
  3 42  1  0
  3 43  1  0
  4  5  1  0
  4 16  1  0
  4 41  1  6
  5  6  2  0
  5 10  1  0
  6  7  1  0
  6 15  1  0
  7  8  2  0
  7 14  1  0
  8  9  1  0
  8 13  1  0
  9 10  2  0
  9 12  1  0
 10 11  1  0
 16 17  1  0
 16 38  1  0
 17 18  2  0
 17 19  1  0
 19 20  1  0
 19 36  1  0
 19 37  1  0
 20 21  2  0
 20 29  1  0
 21 22  1  0
 21 35  1  0
 22 23  2  0
 23 24  1  0
 23 34  1  0
 24 25  1  0
 24 29  2  0
 25 26  2  0
 25 33  1  0
 26 27  1  0
 26 32  1  0
 27 28  2  0
 27 31  1  0
 28 29  1  0
 28 30  1  0
 38 39  1  0
 38 40  1  0
M  END
>  <MODEL>  (17) 
       1

>  <ApoScore>  (17) 
14.0186

$$$$
mol17_score_22.5343
     RDKit          3D

 58 63  0  0  1  0  0  0  0  0999 V2000
    6.9860   -2.5270   23.9820 C   0  0  0  0  0  0  0  0  0  0  0  0
    7.4670   -1.9370   22.6540 C   0  0  1  0  0  0  0  0  0  0  0  0
    6.3330   -1.5420   21.6880 C   0  0  0  0  0  0  0  0  0  0  0  0
    6.8940   -0.4370   20.9380 N   0  0  0  0  0  0  0  0  0  0  0  0
    6.2040    0.1540   19.8490 C   0  0  0  0  0  0  0  0  0  0  0  0
    6.5930   -0.1060   18.5620 C   0  0  0  0  0  0  0  0  0  0  0  0
    5.9230    0.3280   17.4650 N   0  0  0  0  0  0  0  0  0  0  0  0
    4.8400    1.0400   17.6520 C   0  0  0  0  0  0  0  0  0  0  0  0
    4.3480    1.4220   18.9320 C   0  0  0  0  0  0  0  0  0  0  0  0
    3.2080    2.2540   19.0910 C   0  0  0  0  0  0  0  0  0  0  0  0
    2.7880    2.6220   20.3400 C   0  0  0  0  0  0  0  0  0  0  0  0
    3.4780    2.1680   21.4870 C   0  0  0  0  0  0  0  0  0  0  0  0
    4.5770    1.3560   21.3580 C   0  0  0  0  0  0  0  0  0  0  0  0
    5.0460    0.9670   20.0730 C   0  0  0  0  0  0  0  0  0  0  0  0
    5.1040    1.0110   22.2420 H   0  0  0  0  0  0  0  0  0  0  0  0
    3.1430    2.4670   22.4760 H   0  0  0  0  0  0  0  0  0  0  0  0
    1.9280    3.2750   20.4590 H   0  0  0  0  0  0  0  0  0  0  0  0
    2.6960    2.6030   18.1980 H   0  0  0  0  0  0  0  0  0  0  0  0
    4.2940    1.3620   16.7630 H   0  0  0  0  0  0  0  0  0  0  0  0
    7.4800   -0.7070   18.3730 H   0  0  0  0  0  0  0  0  0  0  0  0
    8.0800    0.0590   21.4320 C   0  0  0  0  0  0  0  0  0  0  0  0
    8.7020    0.9660   20.9240 O   0  0  0  0  0  0  0  0  0  0  0  0
    8.3850   -0.6870   22.7590 C   0  0  1  0  0  0  0  0  0  0  0  0
    7.9340    0.2240   23.9280 C   0  0  0  0  0  0  0  0  0  0  0  0
    8.9010    1.2610   24.2070 N   0  0  0  0  0  0  0  0  0  0  0  0
    8.5920    2.6750   24.0900 C   0  0  0  0  0  0  0  0  0  0  0  0
    8.3290    3.3690   25.3960 C   0  0  0  0  0  0  0  0  0  0  0  0
    9.0000    4.4160   25.8050 N   0  0  0  0  0  0  0  0  0  0  0  0
    8.5610    4.7370   27.0630 N   0  0  0  0  0  0  0  0  0  0  0  0
    7.6090    3.8980   27.3570 C   0  0  0  0  0  0  0  0  0  0  0  0
    7.3950    3.0200   26.3350 N   0  0  0  0  0  0  0  0  0  0  0  0
    6.3640    2.0030   26.2600 C   0  0  0  0  0  0  0  0  0  0  0  0
    5.7380    2.0650   27.1550 H   0  0  0  0  0  0  0  0  0  0  0  0
    6.8240    1.0140   26.2320 H   0  0  0  0  0  0  0  0  0  0  0  0
    5.7370    2.1370   25.3720 H   0  0  0  0  0  0  0  0  0  0  0  0
    7.0930    3.8600   28.3080 H   0  0  0  0  0  0  0  0  0  0  0  0
    7.7490    2.7880   23.3900 H   0  0  0  0  0  0  0  0  0  0  0  0
    9.4580    3.1890   23.6580 H   0  0  0  0  0  0  0  0  0  0  0  0
   10.2000    0.9080   24.4900 C   0  0  0  0  0  0  0  0  0  0  0  0
   10.9310    1.5870   25.1910 O   0  0  0  0  0  0  0  0  0  0  0  0
   10.6940   -0.3170   23.7890 C   0  0  0  0  0  0  0  0  0  0  0  0
   12.0630   -0.5940   23.8930 C   0  0  0  0  0  0  0  0  0  0  0  0
   12.6560   -1.5250   23.0610 C   0  0  0  0  0  0  0  0  0  0  0  0
   11.8340   -2.1760   22.1420 C   0  0  0  0  0  0  0  0  0  0  0  0
   12.4100   -3.0340   21.2790 F   0  0  0  0  0  0  0  0  0  0  0  0
   10.4690   -1.9720   22.0640 C   0  0  0  0  0  0  0  0  0  0  0  0
    9.8620   -1.0220   22.9060 C   0  0  0  0  0  0  0  0  0  0  0  0
    9.9140   -2.5290   21.3090 H   0  0  0  0  0  0  0  0  0  0  0  0
   13.7260   -1.7300   23.0780 H   0  0  0  0  0  0  0  0  0  0  0  0
   12.6680   -0.0340   24.5990 H   0  0  0  0  0  0  0  0  0  0  0  0
    7.8170   -0.4020   24.8200 H   0  0  0  0  0  0  0  0  0  0  0  0
    6.9510    0.6610   23.7100 H   0  0  0  0  0  0  0  0  0  0  0  0
    5.4140   -1.2480   22.2180 H   0  0  0  0  0  0  0  0  0  0  0  0
    6.0660   -2.3570   21.0050 H   0  0  0  0  0  0  0  0  0  0  0  0
    8.0750   -2.6970   22.1560 H   0  0  0  0  0  0  0  0  0  0  0  0
    7.8270   -2.7110   24.6620 H   0  0  0  0  0  0  0  0  0  0  0  0
    6.4670   -3.4760   23.8230 H   0  0  0  0  0  0  0  0  0  0  0  0
    6.2880   -1.8600   24.5040 H   0  0  0  0  0  0  0  0  0  0  0  0
  1  2  1  0
  1 56  1  0
  1 57  1  0
  1 58  1  0
  2  3  1  0
  2 23  1  0
  2 55  1  6
  3  4  1  0
  3 53  1  0
  3 54  1  0
  4  5  1  0
  4 21  1  0
  5  6  2  0
  5 14  1  0
  6  7  1  0
  6 20  1  0
  7  8  2  0
  8  9  1  0
  8 19  1  0
  9 10  1  0
  9 14  2  0
 10 11  2  0
 10 18  1  0
 11 12  1  0
 11 17  1  0
 12 13  2  0
 12 16  1  0
 13 14  1  0
 13 15  1  0
 21 22  2  0
 23 21  1  0
 23 24  1  1
 23 47  1  0
 24 25  1  0
 24 51  1  0
 24 52  1  0
 25 26  1  0
 25 39  1  0
 26 27  1  0
 26 37  1  0
 26 38  1  0
 27 28  2  0
 27 31  1  0
 28 29  1  0
 29 30  2  0
 30 31  1  0
 30 36  1  0
 31 32  1  0
 32 33  1  0
 32 34  1  0
 32 35  1  0
 39 40  2  0
 39 41  1  0
 41 42  2  0
 41 47  1  0
 42 43  1  0
 42 50  1  0
 43 44  2  0
 43 49  1  0
 44 45  1  0
 44 46  1  0
 46 47  2  0
 46 48  1  0
M  END
>  <MODEL>  (18) 
       1

>  <ApoScore>  (18) 
22.5343

$$$$
mol18_score_14.3829
     RDKit          3D

 50 53  0  0  1  0  0  0  0  0999 V2000
    6.0170   -1.0390   29.7330 C   0  0  0  0  0  0  0  0  0  0  0  0
    6.3580   -0.7190   28.2850 C   0  0  1  0  0  0  0  0  0  0  0  0
    7.4400   -1.6530   27.7430 C   0  0  0  0  0  0  0  0  0  0  0  0
    7.7840   -1.3350   26.2900 C   0  0  0  0  0  0  0  0  0  0  0  0
    6.5720   -1.3720   25.3440 C   0  0  2  0  0  0  0  0  0  0  0  0
    6.0790   -2.8120   25.1050 C   0  0  0  0  0  0  0  0  0  0  0  0
    5.5580   -2.8600   23.6670 C   0  0  0  0  0  0  0  0  0  0  0  0
    6.2190   -1.7440   22.9890 N   0  0  0  0  0  0  0  0  0  0  0  0
    6.1680   -1.6430   21.6260 C   0  0  0  0  0  0  0  0  0  0  0  0
    5.5420   -2.4520   20.9590 O   0  0  0  0  0  0  0  0  0  0  0  0
    6.9120   -0.4840   20.9190 C   0  0  0  0  0  0  0  0  0  0  0  0
    6.1150    0.0890   19.7680 C   0  0  0  0  0  0  0  0  0  0  0  0
    6.4210   -0.2150   18.4640 C   0  0  0  0  0  0  0  0  0  0  0  0
    5.7570    0.2360   17.3640 N   0  0  0  0  0  0  0  0  0  0  0  0
    4.7360    1.0310   17.5740 C   0  0  0  0  0  0  0  0  0  0  0  0
    4.2870    1.4240   18.8680 C   0  0  0  0  0  0  0  0  0  0  0  0
    3.1640    2.2750   19.0430 C   0  0  0  0  0  0  0  0  0  0  0  0
    2.7500    2.6280   20.3000 C   0  0  0  0  0  0  0  0  0  0  0  0
    3.4410    2.1400   21.4320 C   0  0  0  0  0  0  0  0  0  0  0  0
    4.5310    1.3160   21.2890 C   0  0  0  0  0  0  0  0  0  0  0  0
    4.9890    0.9390   19.9960 C   0  0  0  0  0  0  0  0  0  0  0  0
    5.0470    0.9540   22.1740 H   0  0  0  0  0  0  0  0  0  0  0  0
    3.1060    2.4270   22.4230 H   0  0  0  0  0  0  0  0  0  0  0  0
    1.8930    3.2820   20.4360 H   0  0  0  0  0  0  0  0  0  0  0  0
    2.6430    2.6460   18.1630 H   0  0  0  0  0  0  0  0  0  0  0  0
    4.1990    1.4000   16.6990 H   0  0  0  0  0  0  0  0  0  0  0  0
    7.2660   -0.8670   18.2480 H   0  0  0  0  0  0  0  0  0  0  0  0
    7.2130    0.3140   21.6080 H   0  0  0  0  0  0  0  0  0  0  0  0
    7.8430   -0.9050   20.5150 H   0  0  0  0  0  0  0  0  0  0  0  0
    6.9600   -0.9050   23.9190 C   0  0  0  0  0  0  0  0  0  0  0  0
    8.0400   -1.0080   23.7520 H   0  0  0  0  0  0  0  0  0  0  0  0
    6.7120    0.1510   23.7760 H   0  0  0  0  0  0  0  0  0  0  0  0
    4.4690   -2.7500   23.6300 H   0  0  0  0  0  0  0  0  0  0  0  0
    5.8060   -3.8070   23.1860 H   0  0  0  0  0  0  0  0  0  0  0  0
    5.3120   -3.1150   25.8230 H   0  0  0  0  0  0  0  0  0  0  0  0
    6.9080   -3.5160   25.2370 H   0  0  0  0  0  0  0  0  0  0  0  0
    5.4490   -0.4780   25.9220 C   0  0  0  0  0  0  0  0  0  0  0  0
    5.1190   -0.7580   27.3900 C   0  0  0  0  0  0  0  0  0  0  0  0
    4.3810   -0.0280   27.7490 H   0  0  0  0  0  0  0  0  0  0  0  0
    4.6340   -1.7370   27.4880 H   0  0  0  0  0  0  0  0  0  0  0  0
    4.5480   -0.5800   25.3060 H   0  0  0  0  0  0  0  0  0  0  0  0
    5.7570    0.5730   25.8420 H   0  0  0  0  0  0  0  0  0  0  0  0
    8.5680   -2.0120   25.9290 H   0  0  0  0  0  0  0  0  0  0  0  0
    8.2200   -0.3380   26.2410 H   0  0  0  0  0  0  0  0  0  0  0  0
    8.3390   -1.5890   28.3710 H   0  0  0  0  0  0  0  0  0  0  0  0
    7.0960   -2.6910   27.8150 H   0  0  0  0  0  0  0  0  0  0  0  0
    6.7570    0.3030   28.2470 H   0  0  0  0  0  0  0  0  0  0  0  0
    5.2610   -0.3540   30.1270 H   0  0  0  0  0  0  0  0  0  0  0  0
    5.6190   -2.0560   29.8170 H   0  0  0  0  0  0  0  0  0  0  0  0
    6.9010   -0.9770   30.3740 H   0  0  0  0  0  0  0  0  0  0  0  0
  1  2  1  0
  1 48  1  0
  1 49  1  0
  1 50  1  0
  2  3  1  0
  2 38  1  0
  2 47  1  1
  3  4  1  0
  3 45  1  0
  3 46  1  0
  4 43  1  0
  4 44  1  0
  5  4  1  1
  5  6  1  0
  5 30  1  0
  5 37  1  0
  6  7  1  0
  6 35  1  0
  6 36  1  0
  7  8  1  0
  7 33  1  0
  7 34  1  0
  8  9  1  0
  8 30  1  0
  9 10  2  0
  9 11  1  0
 11 12  1  0
 11 28  1  0
 11 29  1  0
 12 13  2  0
 12 21  1  0
 13 14  1  0
 13 27  1  0
 14 15  2  0
 15 16  1  0
 15 26  1  0
 16 17  1  0
 16 21  2  0
 17 18  2  0
 17 25  1  0
 18 19  1  0
 18 24  1  0
 19 20  2  0
 19 23  1  0
 20 21  1  0
 20 22  1  0
 30 31  1  0
 30 32  1  0
 37 38  1  0
 37 41  1  0
 37 42  1  0
 38 39  1  0
 38 40  1  0
M  END
>  <MODEL>  (19) 
       1

>  <ApoScore>  (19) 
14.3829

$$$$
mol19_score_25.6388
     RDKit          3D

 67 71  0  0  1  0  0  0  0  0999 V2000
    9.2490    3.1690   25.3560 O   0  0  0  0  0  0  0  0  0  0  0  0
    8.4250    2.7670   24.5480 C   0  0  0  0  0  0  0  0  0  0  0  0
    7.5430    1.5470   24.7970 C   0  0  0  0  0  0  0  0  0  0  0  0
    7.8430    0.4280   23.8540 N   0  0  1  0  0  0  0  0  0  0  0  0
    9.3090    0.0340   23.9040 C   0  0  0  0  0  0  0  0  0  0  0  0
    9.6160   -1.0420   22.8930 C   0  0  0  0  0  0  0  0  0  0  0  0
   10.8860   -1.1520   22.3270 C   0  0  0  0  0  0  0  0  0  0  0  0
   11.1740   -2.1430   21.3990 C   0  0  0  0  0  0  0  0  0  0  0  0
   10.1700   -3.0340   21.0300 C   0  0  0  0  0  0  0  0  0  0  0  0
   10.5210   -4.2490   19.8100 Cl  0  0  0  0  0  0  0  0  0  0  0  0
    8.9190   -2.9810   21.6320 C   0  0  0  0  0  0  0  0  0  0  0  0
    8.6250   -1.9540   22.5330 C   0  0  0  0  0  0  0  0  0  0  0  0
    7.1850   -1.7750   22.9630 C   0  0  2  0  0  0  0  0  0  0  0  0
    6.3250   -1.2390   21.8140 C   0  0  0  0  0  0  0  0  0  0  0  0
    5.1890   -1.6160   21.6160 O   0  0  0  0  0  0  0  0  0  0  0  0
    6.8970   -0.2070   21.0690 N   0  0  0  0  0  0  0  0  0  0  0  0
    6.1870    0.2570   19.9310 C   0  0  0  0  0  0  0  0  0  0  0  0
    6.5500   -0.1060   18.6580 C   0  0  0  0  0  0  0  0  0  0  0  0
    5.8720    0.2570   17.5420 N   0  0  0  0  0  0  0  0  0  0  0  0
    4.8060    1.0040   17.6920 C   0  0  0  0  0  0  0  0  0  0  0  0
    4.3320    1.4620   18.9510 C   0  0  0  0  0  0  0  0  0  0  0  0
    3.1830    2.2870   19.0720 C   0  0  0  0  0  0  0  0  0  0  0  0
    2.7640    2.7160   20.3030 C   0  0  0  0  0  0  0  0  0  0  0  0
    3.4730    2.3420   21.4680 C   0  0  0  0  0  0  0  0  0  0  0  0
    4.5890    1.5490   21.3770 C   0  0  0  0  0  0  0  0  0  0  0  0
    5.0410    1.0820   20.1110 C   0  0  0  0  0  0  0  0  0  0  0  0
    5.1400    1.2550   22.2690 H   0  0  0  0  0  0  0  0  0  0  0  0
    3.1300    2.6900   22.4370 H   0  0  0  0  0  0  0  0  0  0  0  0
    1.8890    3.3540   20.3930 H   0  0  0  0  0  0  0  0  0  0  0  0
    2.6550    2.5760   18.1670 H   0  0  0  0  0  0  0  0  0  0  0  0
    4.2630    1.2870   16.7880 H   0  0  0  0  0  0  0  0  0  0  0  0
    7.4170   -0.7440   18.4810 H   0  0  0  0  0  0  0  0  0  0  0  0
    7.9070   -0.2270   20.9720 H   0  0  0  0  0  0  0  0  0  0  0  0
    7.0370   -0.8090   24.1450 C   0  0  0  0  0  0  0  0  0  0  0  0
    5.9870   -0.5440   24.2990 H   0  0  0  0  0  0  0  0  0  0  0  0
    7.4160   -1.2590   25.0700 H   0  0  0  0  0  0  0  0  0  0  0  0
    6.7410   -2.7350   23.2260 H   0  0  0  0  0  0  0  0  0  0  0  0
    8.1610   -3.7260   21.4130 H   0  0  0  0  0  0  0  0  0  0  0  0
   12.1720   -2.2400   20.9790 H   0  0  0  0  0  0  0  0  0  0  0  0
   11.6660   -0.4490   22.6070 H   0  0  0  0  0  0  0  0  0  0  0  0
    9.9350    0.9110   23.7350 H   0  0  0  0  0  0  0  0  0  0  0  0
    9.5200   -0.3230   24.9220 H   0  0  0  0  0  0  0  0  0  0  0  0
    7.6000    0.7130   22.8780 H   0  0  0  0  0  0  0  0  0  0  0  0
    7.7030    1.2310   25.8300 H   0  0  0  0  0  0  0  0  0  0  0  0
    6.4950    1.8440   24.6790 H   0  0  0  0  0  0  0  0  0  0  0  0
    8.2180    3.3720   23.3500 N   0  0  0  0  0  0  0  0  0  0  0  0
    9.0480    4.4980   22.9640 C   0  0  0  0  0  0  0  0  0  0  0  0
   10.4610    4.0360   22.5490 C   0  0  0  0  0  0  0  0  0  0  0  0
   11.3830    5.1370   22.0320 C   0  0  0  0  0  0  0  0  0  0  0  0
   11.5200    5.3340   20.7360 C   0  0  0  0  0  0  0  0  0  0  0  0
   12.6210    7.1940   21.0150 C   0  0  0  0  0  0  0  0  0  0  0  0
   12.6120    7.5270   21.1370 C   0  0  0  0  0  0  0  0  0  0  0  0
   13.3280    8.6390   20.5650 C   0  0  0  0  0  0  0  0  0  0  0  0
   12.3880    9.6090   20.9290 F   0  0  0  0  0  0  0  0  0  0  0  0
   13.6310    8.8420   19.2850 F   0  0  0  0  0  0  0  0  0  0  0  0
   14.1520    8.9540   21.1620 H   0  0  0  0  0  0  0  0  0  0  0  0
   12.7500    7.0090   22.5790 C   0  0  0  0  0  0  0  0  0  0  0  0
   12.1310    5.9470   22.9930 C   0  0  0  0  0  0  0  0  0  0  0  0
   12.1660    5.6450   24.0460 H   0  0  0  0  0  0  0  0  0  0  0  0
   13.0010    7.8580   23.2080 H   0  0  0  0  0  0  0  0  0  0  0  0
   12.3900    6.1750   20.5680 H   0  0  0  0  0  0  0  0  0  0  0  0
   11.0630    4.6580   20.0050 H   0  0  0  0  0  0  0  0  0  0  0  0
   10.3140    3.2200   21.8160 H   0  0  0  0  0  0  0  0  0  0  0  0
   10.8780    3.5320   23.4340 H   0  0  0  0  0  0  0  0  0  0  0  0
    8.5180    5.0220   22.1660 H   0  0  0  0  0  0  0  0  0  0  0  0
    9.1130    5.1640   23.8270 H   0  0  0  0  0  0  0  0  0  0  0  0
    7.6430    2.9190   22.6510 H   0  0  0  0  0  0  0  0  0  0  0  0
  1  2  2  0
  2  3  1  0
  2 46  1  0
  3  4  1  0
  3 44  1  0
  3 45  1  0
  4  5  1  0
  4 34  1  0
  4 43  1  6
  5  6  1  0
  5 41  1  0
  5 42  1  0
  6  7  2  0
  6 12  1  0
  7  8  1  0
  7 40  1  0
  8  9  2  0
  8 39  1  0
  9 10  1  0
  9 11  1  0
 11 12  2  0
 11 38  1  0
 12 13  1  0
 13 14  1  0
 13 34  1  0
 13 37  1  1
 14 15  2  0
 14 16  1  0
 16 17  1  0
 16 33  1  0
 17 18  2  0
 17 26  1  0
 18 19  1  0
 18 32  1  0
 19 20  2  0
 20 21  1  0
 20 31  1  0
 21 22  1  0
 21 26  2  0
 22 23  2  0
 22 30  1  0
 23 24  1  0
 23 29  1  0
 24 25  2  0
 24 28  1  0
 25 26  1  0
 25 27  1  0
 34 35  1  0
 34 36  1  0
 46 47  1  0
 46 67  1  0
 47 48  1  0
 47 65  1  0
 47 66  1  0
 48 49  1  0
 48 63  1  0
 48 64  1  0
 49 50  2  0
 49 58  1  0
 50 51  1  0
 50 62  1  0
 51 52  2  0
 51 61  1  0
 52 53  1  0
 52 57  1  0
 53 54  1  0
 53 55  1  0
 53 56  1  0
 57 58  2  0
 57 60  1  0
 58 59  1  0
M  CHG  1   4   1
M  END
>  <MODEL>  (20) 
       1

>  <ApoScore>  (20) 
25.6388

$$$$
mol20_score_22.0941
     RDKit          3D

 66 70  0  0  0  0  0  0  0  0999 V2000
   11.3070   -3.0010   24.5020 C   0  0  0  0  0  0  0  0  0  0  0  0
   10.1710   -4.0240   24.6410 C   0  0  0  0  0  0  0  0  0  0  0  0
    8.8690   -3.3850   24.2050 C   0  0  0  0  0  0  0  0  0  0  0  0
    8.6000   -3.2940   23.0230 O   0  0  0  0  0  0  0  0  0  0  0  0
    8.0580   -2.8640   25.2210 N   0  0  0  0  0  0  0  0  0  0  0  0
    7.9720   -3.5780   26.4990 C   0  0  0  0  0  0  0  0  0  0  0  0
    6.6150   -3.3490   27.1430 C   0  0  0  0  0  0  0  0  0  0  0  0
    6.3930   -1.8580   27.3580 C   0  0  0  0  0  0  0  0  0  0  0  0
    6.6200   -1.0770   26.0800 C   0  0  0  0  0  0  0  0  0  0  0  0
    6.0580    0.1880   25.8960 C   0  0  0  0  0  0  0  0  0  0  0  0
    6.3010    0.9350   24.7550 C   0  0  0  0  0  0  0  0  0  0  0  0
    7.1200    0.4110   23.7550 C   0  0  0  0  0  0  0  0  0  0  0  0
    7.4560    1.2330   22.6420 N   0  0  0  0  0  0  0  0  0  0  0  0
    7.7650    0.7930   21.3580 C   0  0  0  0  0  0  0  0  0  0  0  0
    8.5150    1.4140   20.6380 O   0  0  0  0  0  0  0  0  0  0  0  0
    6.9990   -0.4250   20.8620 C   0  0  0  0  0  0  0  0  0  0  0  0
    6.1160    0.0380   19.7310 C   0  0  0  0  0  0  0  0  0  0  0  0
    6.4560   -0.2350   18.4360 C   0  0  0  0  0  0  0  0  0  0  0  0
    5.7950    0.2210   17.3420 N   0  0  0  0  0  0  0  0  0  0  0  0
    4.7690    1.0050   17.5690 C   0  0  0  0  0  0  0  0  0  0  0  0
    4.3160    1.3940   18.8590 C   0  0  0  0  0  0  0  0  0  0  0  0
    3.2200    2.2750   19.0310 C   0  0  0  0  0  0  0  0  0  0  0  0
    2.7990    2.6330   20.2800 C   0  0  0  0  0  0  0  0  0  0  0  0
    3.4710    2.1370   21.4170 C   0  0  0  0  0  0  0  0  0  0  0  0
    4.5570    1.2990   21.2800 C   0  0  0  0  0  0  0  0  0  0  0  0
    5.0050    0.8960   19.9890 C   0  0  0  0  0  0  0  0  0  0  0  0
    5.0880    0.9810   22.1780 H   0  0  0  0  0  0  0  0  0  0  0  0
    3.1360    2.4320   22.4060 H   0  0  0  0  0  0  0  0  0  0  0  0
    1.9520    3.3050   20.4010 H   0  0  0  0  0  0  0  0  0  0  0  0
    2.7280    2.6500   18.1390 H   0  0  0  0  0  0  0  0  0  0  0  0
    4.2330    1.3800   16.6970 H   0  0  0  0  0  0  0  0  0  0  0  0
    7.3240   -0.8630   18.2240 H   0  0  0  0  0  0  0  0  0  0  0  0
    6.4170   -0.8660   21.6710 H   0  0  0  0  0  0  0  0  0  0  0  0
    7.7250   -1.1710   20.5120 H   0  0  0  0  0  0  0  0  0  0  0  0
    7.5710    2.5890   22.8820 N   0  0  0  0  0  0  0  0  0  0  0  0
    6.9750    3.4940   21.9010 C   0  0  0  0  0  0  0  0  0  0  0  0
    6.7870    2.9690   20.9600 H   0  0  0  0  0  0  0  0  0  0  0  0
    7.6690    4.3090   21.6800 H   0  0  0  0  0  0  0  0  0  0  0  0
    6.0140    3.9090   22.2390 H   0  0  0  0  0  0  0  0  0  0  0  0
    8.6610    2.9690   23.6780 C   0  0  0  0  0  0  0  0  0  0  0  0
    9.7430    2.1040   23.9070 C   0  0  0  0  0  0  0  0  0  0  0  0
   10.8000    2.5390   24.6920 C   0  0  0  0  0  0  0  0  0  0  0  0
   10.7700    3.7930   25.3000 C   0  0  0  0  0  0  0  0  0  0  0  0
    9.6970    4.6320   25.0560 C   0  0  0  0  0  0  0  0  0  0  0  0
    9.6880    6.2230   25.7580 Cl  0  0  0  0  0  0  0  0  0  0  0  0
    8.6440    4.2450   24.2460 C   0  0  0  0  0  0  0  0  0  0  0  0
    7.8090    4.9200   24.0870 H   0  0  0  0  0  0  0  0  0  0  0  0
   11.5590    4.1400   25.9560 H   0  0  0  0  0  0  0  0  0  0  0  0
   11.6560    1.8790   24.7900 H   0  0  0  0  0  0  0  0  0  0  0  0
    9.7410    1.0920   23.5030 H   0  0  0  0  0  0  0  0  0  0  0  0
    7.6950   -0.8410   23.9090 C   0  0  0  0  0  0  0  0  0  0  0  0
    7.4480   -1.5930   25.0660 C   0  0  0  0  0  0  0  0  0  0  0  0
    8.3570   -1.2220   23.1440 H   0  0  0  0  0  0  0  0  0  0  0  0
    5.8960    1.9320   24.6230 H   0  0  0  0  0  0  0  0  0  0  0  0
    5.4250    0.6180   26.6720 H   0  0  0  0  0  0  0  0  0  0  0  0
    5.3850   -1.6690   27.7460 H   0  0  0  0  0  0  0  0  0  0  0  0
    7.0810   -1.4970   28.1360 H   0  0  0  0  0  0  0  0  0  0  0  0
    6.5530   -3.8990   28.0900 H   0  0  0  0  0  0  0  0  0  0  0  0
    5.8410   -3.7450   26.4760 H   0  0  0  0  0  0  0  0  0  0  0  0
    8.1030   -4.6490   26.3120 H   0  0  0  0  0  0  0  0  0  0  0  0
    8.7750   -3.2700   27.1820 H   0  0  0  0  0  0  0  0  0  0  0  0
   10.3190   -4.8550   23.9610 H   0  0  0  0  0  0  0  0  0  0  0  0
   10.1360   -4.4220   25.6590 H   0  0  0  0  0  0  0  0  0  0  0  0
   11.2000   -2.2270   25.2670 H   0  0  0  0  0  0  0  0  0  0  0  0
   11.2740   -2.5120   23.5190 H   0  0  0  0  0  0  0  0  0  0  0  0
   12.2880   -3.4680   24.6360 H   0  0  0  0  0  0  0  0  0  0  0  0
  1  2  1  0
  1 64  1  0
  1 65  1  0
  1 66  1  0
  2  3  1  0
  2 62  1  0
  2 63  1  0
  3  4  2  0
  3  5  1  0
  5  6  1  0
  5 52  1  0
  6  7  1  0
  6 60  1  0
  6 61  1  0
  7  8  1  0
  7 58  1  0
  7 59  1  0
  8  9  1  0
  8 56  1  0
  8 57  1  0
  9 10  1  0
  9 52  2  0
 10 11  2  0
 10 55  1  0
 11 12  1  0
 11 54  1  0
 12 13  1  0
 12 51  2  0
 13 14  1  0
 13 35  1  0
 14 15  2  0
 14 16  1  0
 16 17  1  0
 16 33  1  0
 16 34  1  0
 17 18  2  0
 17 26  1  0
 18 19  1  0
 18 32  1  0
 19 20  2  0
 20 21  1  0
 20 31  1  0
 21 22  1  0
 21 26  2  0
 22 23  2  0
 22 30  1  0
 23 24  1  0
 23 29  1  0
 24 25  2  0
 24 28  1  0
 25 26  1  0
 25 27  1  0
 35 36  1  0
 35 40  1  0
 36 37  1  0
 36 38  1  0
 36 39  1  0
 40 41  2  0
 40 46  1  0
 41 42  1  0
 41 50  1  0
 42 43  2  0
 42 49  1  0
 43 44  1  0
 43 48  1  0
 44 45  1  0
 44 46  2  0
 46 47  1  0
 51 52  1  0
 51 53  1  0
M  END
>  <MODEL>  (21) 
       1

>  <ApoScore>  (21) 
22.0941

$$$$
mol21_score_23.2932
     RDKit          3D

 59 64  0  0  1  0  0  0  0  0999 V2000
    6.8020   -2.2580   23.6500 C   0  0  0  0  0  0  0  0  0  0  0  0
    7.7710   -1.8260   22.5320 C   0  0  1  0  0  0  0  0  0  0  0  0
    7.0310   -1.7860   21.1730 C   0  0  0  0  0  0  0  0  0  0  0  0
    6.8830   -0.3820   20.8760 N   0  0  0  0  0  0  0  0  0  0  0  0
    6.1300    0.1100   19.7800 C   0  0  0  0  0  0  0  0  0  0  0  0
    6.4440   -0.2240   18.4840 C   0  0  0  0  0  0  0  0  0  0  0  0
    5.7680    0.2270   17.4020 N   0  0  0  0  0  0  0  0  0  0  0  0
    4.7450    1.0220   17.5990 C   0  0  0  0  0  0  0  0  0  0  0  0
    4.2930    1.4260   18.8860 C   0  0  0  0  0  0  0  0  0  0  0  0
    3.1660    2.2730   19.0630 C   0  0  0  0  0  0  0  0  0  0  0  0
    2.7420    2.6160   20.3210 C   0  0  0  0  0  0  0  0  0  0  0  0
    3.4250    2.1220   21.4550 C   0  0  0  0  0  0  0  0  0  0  0  0
    4.5220    1.3090   21.3060 C   0  0  0  0  0  0  0  0  0  0  0  0
    4.9980    0.9540   20.0140 C   0  0  0  0  0  0  0  0  0  0  0  0
    5.0330    0.9140   22.1760 H   0  0  0  0  0  0  0  0  0  0  0  0
    3.0760    2.3910   22.4490 H   0  0  0  0  0  0  0  0  0  0  0  0
    1.8810    3.2640   20.4500 H   0  0  0  0  0  0  0  0  0  0  0  0
    2.6540    2.6400   18.1810 H   0  0  0  0  0  0  0  0  0  0  0  0
    4.2210    1.3820   16.7160 H   0  0  0  0  0  0  0  0  0  0  0  0
    7.2880   -0.8740   18.2550 H   0  0  0  0  0  0  0  0  0  0  0  0
    7.7210    0.4320   21.6030 C   0  0  0  0  0  0  0  0  0  0  0  0
    7.8730    1.6140   21.3780 O   0  0  0  0  0  0  0  0  0  0  0  0
    8.4400   -0.4150   22.6850 C   0  0  1  0  0  0  0  0  0  0  0  0
    8.2460    0.1780   24.1040 C   0  0  0  0  0  0  0  0  0  0  0  0
    8.9570    1.4240   24.3070 N   0  0  0  0  0  0  0  0  0  0  0  0
    8.2780    2.5740   24.9070 C   0  0  0  0  0  0  0  0  0  0  0  0
    7.7580    3.5800   23.9050 C   0  0  0  0  0  0  0  0  0  0  0  0
    8.4810    4.5960   23.2440 C   0  0  0  0  0  0  0  0  0  0  0  0
    7.7400    5.2160   22.3320 N   0  0  0  0  0  0  0  0  0  0  0  0
    6.5470    4.6240   22.3960 N   0  0  0  0  0  0  0  0  0  0  0  0
    5.4980    4.9470   21.4570 C   0  0  0  0  0  0  0  0  0  0  0  0
    5.4790    4.2370   20.6180 H   0  0  0  0  0  0  0  0  0  0  0  0
    5.6680    5.9660   21.1000 H   0  0  0  0  0  0  0  0  0  0  0  0
    4.5480    4.8800   21.9930 H   0  0  0  0  0  0  0  0  0  0  0  0
    6.5020    3.6540   23.3350 C   0  0  0  0  0  0  0  0  0  0  0  0
    5.5960    3.0680   23.4490 H   0  0  0  0  0  0  0  0  0  0  0  0
    9.5230    4.8700   23.3670 H   0  0  0  0  0  0  0  0  0  0  0  0
    8.9900    3.0410   25.5970 H   0  0  0  0  0  0  0  0  0  0  0  0
    7.4480    2.1860   25.5070 H   0  0  0  0  0  0  0  0  0  0  0  0
   10.2600    1.5760   23.9270 C   0  0  0  0  0  0  0  0  0  0  0  0
   10.9420    2.5170   24.3160 O   0  0  0  0  0  0  0  0  0  0  0  0
   10.7770    0.5380   22.9770 C   0  0  0  0  0  0  0  0  0  0  0  0
   12.1300    0.5890   22.6520 C   0  0  0  0  0  0  0  0  0  0  0  0
   12.6640   -0.3000   21.7480 C   0  0  0  0  0  0  0  0  0  0  0  0
   11.8250   -1.2400   21.1660 C   0  0  0  0  0  0  0  0  0  0  0  0
   12.3650   -2.0610   20.2490 F   0  0  0  0  0  0  0  0  0  0  0  0
   10.4710   -1.2920   21.4350 C   0  0  0  0  0  0  0  0  0  0  0  0
    9.9350   -0.4160   22.3900 C   0  0  0  0  0  0  0  0  0  0  0  0
    9.8480   -1.9570   20.8430 H   0  0  0  0  0  0  0  0  0  0  0  0
   13.6940   -0.2450   21.4180 H   0  0  0  0  0  0  0  0  0  0  0  0
   12.7540    1.3400   23.1150 H   0  0  0  0  0  0  0  0  0  0  0  0
    7.1900    0.3860   24.2590 H   0  0  0  0  0  0  0  0  0  0  0  0
    8.5740   -0.5710   24.8440 H   0  0  0  0  0  0  0  0  0  0  0  0
    7.6160   -2.2790   20.3950 H   0  0  0  0  0  0  0  0  0  0  0  0
    6.0450   -2.2650   21.2180 H   0  0  0  0  0  0  0  0  0  0  0  0
    8.5610   -2.5850   22.5040 H   0  0  0  0  0  0  0  0  0  0  0  0
    7.3020   -2.3300   24.6210 H   0  0  0  0  0  0  0  0  0  0  0  0
    6.3860   -3.2500   23.4250 H   0  0  0  0  0  0  0  0  0  0  0  0
    5.9590   -1.5630   23.7520 H   0  0  0  0  0  0  0  0  0  0  0  0
  1  2  1  0
  1 57  1  0
  1 58  1  0
  1 59  1  0
  2  3  1  0
  2 23  1  0
  2 56  1  6
  3  4  1  0
  3 54  1  0
  3 55  1  0
  4  5  1  0
  4 21  1  0
  5  6  2  0
  5 14  1  0
  6  7  1  0
  6 20  1  0
  7  8  2  0
  8  9  1  0
  8 19  1  0
  9 10  1  0
  9 14  2  0
 10 11  2  0
 10 18  1  0
 11 12  1  0
 11 17  1  0
 12 13  2  0
 12 16  1  0
 13 14  1  0
 13 15  1  0
 21 22  2  0
 23 21  1  0
 23 24  1  1
 23 48  1  0
 24 25  1  0
 24 52  1  0
 24 53  1  0
 25 26  1  0
 25 40  1  0
 26 27  1  0
 26 38  1  0
 26 39  1  0
 27 28  1  0
 27 35  2  0
 28 29  2  0
 28 37  1  0
 29 30  1  0
 30 31  1  0
 30 35  1  0
 31 32  1  0
 31 33  1  0
 31 34  1  0
 35 36  1  0
 40 41  2  0
 40 42  1  0
 42 43  2  0
 42 48  1  0
 43 44  1  0
 43 51  1  0
 44 45  2  0
 44 50  1  0
 45 46  1  0
 45 47  1  0
 47 48  2  0
 47 49  1  0
M  END
>  <MODEL>  (22) 
       1

>  <ApoScore>  (22) 
23.2932

$$$$
mol22_score_24.7044
     RDKit          3D

 41 44  0  0  0  0  0  0  0  0999 V2000
    7.9690    1.7330   21.0590 O   0  0  0  0  0  0  0  0  0  0  0  0
    8.0400    0.5530   21.3710 C   0  0  0  0  0  0  0  0  0  0  0  0
    6.9870   -0.4470   20.9030 C   0  0  0  0  0  0  0  0  0  0  0  0
    6.1480    0.0900   19.7760 C   0  0  0  0  0  0  0  0  0  0  0  0
    6.4580   -0.2180   18.4760 C   0  0  0  0  0  0  0  0  0  0  0  0
    5.7880    0.2210   17.3760 N   0  0  0  0  0  0  0  0  0  0  0  0
    4.7640    1.0150   17.5880 C   0  0  0  0  0  0  0  0  0  0  0  0
    4.3210    1.4150   18.8760 C   0  0  0  0  0  0  0  0  0  0  0  0
    3.2010    2.2660   19.0430 C   0  0  0  0  0  0  0  0  0  0  0  0
    2.7890    2.6340   20.2960 C   0  0  0  0  0  0  0  0  0  0  0  0
    3.4880    2.1690   21.4360 C   0  0  0  0  0  0  0  0  0  0  0  0
    4.5850    1.3510   21.2950 C   0  0  0  0  0  0  0  0  0  0  0  0
    5.0320    0.9490   20.0080 C   0  0  0  0  0  0  0  0  0  0  0  0
    5.1270    1.0240   22.1780 H   0  0  0  0  0  0  0  0  0  0  0  0
    3.1520    2.4670   22.4230 H   0  0  0  0  0  0  0  0  0  0  0  0
    1.9350    3.2910   20.4220 H   0  0  0  0  0  0  0  0  0  0  0  0
    2.6890    2.6280   18.1530 H   0  0  0  0  0  0  0  0  0  0  0  0
    4.2200    1.3850   16.7160 H   0  0  0  0  0  0  0  0  0  0  0  0
    7.2960   -0.8820   18.2540 H   0  0  0  0  0  0  0  0  0  0  0  0
    6.3760   -0.7550   21.7640 H   0  0  0  0  0  0  0  0  0  0  0  0
    7.5190   -1.3430   20.5640 H   0  0  0  0  0  0  0  0  0  0  0  0
    9.0700    0.0630   22.1180 N   0  0  0  0  0  0  0  0  0  0  0  0
    9.1840   -1.3280   22.5870 C   0  0  0  0  0  0  0  0  0  0  0  0
   10.0940   -1.4100   23.8110 C   0  0  0  0  0  0  0  0  0  0  0  0
   11.4290   -0.8000   23.4870 C   0  0  0  0  0  0  0  0  0  0  0  0
   12.6380   -1.3260   23.9320 C   0  0  0  0  0  0  0  0  0  0  0  0
   12.6610   -2.7720   24.9120 Cl  0  0  0  0  0  0  0  0  0  0  0  0
   13.8460   -0.7230   23.6170 C   0  0  0  0  0  0  0  0  0  0  0  0
   13.8570    0.4030   22.8010 C   0  0  0  0  0  0  0  0  0  0  0  0
   12.6630    0.9570   22.3590 C   0  0  0  0  0  0  0  0  0  0  0  0
   11.4510    0.3730   22.7180 C   0  0  0  0  0  0  0  0  0  0  0  0
   10.1400    1.0240   22.3740 C   0  0  0  0  0  0  0  0  0  0  0  0
    9.8240    1.6920   23.1870 H   0  0  0  0  0  0  0  0  0  0  0  0
   10.2120    1.6650   21.4850 H   0  0  0  0  0  0  0  0  0  0  0  0
   12.6740    1.8520   21.7390 H   0  0  0  0  0  0  0  0  0  0  0  0
   14.7880    0.8650   22.4910 H   0  0  0  0  0  0  0  0  0  0  0  0
   14.7440   -1.1500   24.0330 H   0  0  0  0  0  0  0  0  0  0  0  0
   10.2160   -2.4440   24.1510 H   0  0  0  0  0  0  0  0  0  0  0  0
    9.6330   -0.8460   24.6320 H   0  0  0  0  0  0  0  0  0  0  0  0
    9.5910   -1.9560   21.7850 H   0  0  0  0  0  0  0  0  0  0  0  0
    8.2000   -1.7440   22.8380 H   0  0  0  0  0  0  0  0  0  0  0  0
  1  2  2  0
  2  3  1  0
  2 22  1  0
  3  4  1  0
  3 20  1  0
  3 21  1  0
  4  5  2  0
  4 13  1  0
  5  6  1  0
  5 19  1  0
  6  7  2  0
  7  8  1  0
  7 18  1  0
  8  9  1  0
  8 13  2  0
  9 10  2  0
  9 17  1  0
 10 11  1  0
 10 16  1  0
 11 12  2  0
 11 15  1  0
 12 13  1  0
 12 14  1  0
 22 23  1  0
 22 32  1  0
 23 24  1  0
 23 40  1  0
 23 41  1  0
 24 25  1  0
 24 38  1  0
 24 39  1  0
 25 26  2  0
 25 31  1  0
 26 27  1  0
 26 28  1  0
 28 29  2  0
 28 37  1  0
 29 30  1  0
 29 36  1  0
 30 31  2  0
 30 35  1  0
 31 32  1  0
 32 33  1  0
 32 34  1  0
M  END
>  <MODEL>  (23) 
       1

>  <ApoScore>  (23) 
24.7044

$$$$
mol23_score_23.6530
     RDKit          3D

 69 74  0  0  1  0  0  0  0  0999 V2000
    7.9390    7.6710   22.4990 C   0  0  0  0  0  0  0  0  0  0  0  0
    7.7090    6.3170   21.8580 C   0  0  1  0  0  0  0  0  0  0  0  0
    8.6410    5.1820   22.3560 C   0  0  0  0  0  0  0  0  0  0  0  0
    7.9900    3.8100   22.2600 N   0  0  1  0  0  0  0  0  0  0  0  0
    7.3120    3.3830   23.5320 C   0  0  0  0  0  0  0  0  0  0  0  0
    8.3130    2.8070   24.5260 C   0  0  0  0  0  0  0  0  0  0  0  0
    8.9950    1.6280   23.9980 N   0  0  0  0  0  0  0  0  0  0  0  0
    8.2410    0.3960   23.8380 C   0  0  0  0  0  0  0  0  0  0  0  0
    8.5820   -0.3870   22.5390 C   0  0  2  0  0  0  0  0  0  0  0  0
    8.0040    0.3600   21.3140 C   0  0  0  0  0  0  0  0  0  0  0  0
    8.4300    1.4180   20.8780 O   0  0  0  0  0  0  0  0  0  0  0  0
    6.9340   -0.3470   20.8180 N   0  0  0  0  0  0  0  0  0  0  0  0
    6.1350    0.1360   19.7410 C   0  0  0  0  0  0  0  0  0  0  0  0
    6.4710   -0.1530   18.4420 C   0  0  0  0  0  0  0  0  0  0  0  0
    5.7740    0.2830   17.3670 N   0  0  0  0  0  0  0  0  0  0  0  0
    4.7260    1.0380   17.5790 C   0  0  0  0  0  0  0  0  0  0  0  0
    4.2660    1.4200   18.8710 C   0  0  0  0  0  0  0  0  0  0  0  0
    3.1560    2.2890   19.0600 C   0  0  0  0  0  0  0  0  0  0  0  0
    2.7650    2.6540   20.3200 C   0  0  0  0  0  0  0  0  0  0  0  0
    3.4550    2.1660   21.4490 C   0  0  0  0  0  0  0  0  0  0  0  0
    4.5230    1.3120   21.2900 C   0  0  0  0  0  0  0  0  0  0  0  0
    4.9740    0.9310   19.9950 C   0  0  0  0  0  0  0  0  0  0  0  0
    5.0690    0.9710   22.1630 H   0  0  0  0  0  0  0  0  0  0  0  0
    3.1640    2.4910   22.4440 H   0  0  0  0  0  0  0  0  0  0  0  0
    1.9350    3.3420   20.4610 H   0  0  0  0  0  0  0  0  0  0  0  0
    2.6470    2.6730   18.1810 H   0  0  0  0  0  0  0  0  0  0  0  0
    4.1830    1.3960   16.7030 H   0  0  0  0  0  0  0  0  0  0  0  0
    7.3440   -0.7660   18.2250 H   0  0  0  0  0  0  0  0  0  0  0  0
    6.5170   -1.4250   21.6980 C   0  0  0  0  0  0  0  0  0  0  0  0
    7.8110   -1.7390   22.4680 C   0  0  2  0  0  0  0  0  0  0  0  0
    7.5830   -2.4750   23.7860 C   0  0  0  0  0  0  0  0  0  0  0  0
    6.9380   -1.8970   24.4580 H   0  0  0  0  0  0  0  0  0  0  0  0
    8.5290   -2.6640   24.3070 H   0  0  0  0  0  0  0  0  0  0  0  0
    7.0960   -3.4430   23.6200 H   0  0  0  0  0  0  0  0  0  0  0  0
    8.3910   -2.3860   21.8080 H   0  0  0  0  0  0  0  0  0  0  0  0
    5.7010   -1.1200   22.3760 H   0  0  0  0  0  0  0  0  0  0  0  0
    6.1540   -2.2810   21.1170 H   0  0  0  0  0  0  0  0  0  0  0  0
   10.0940   -0.4570   22.3770 C   0  0  0  0  0  0  0  0  0  0  0  0
   10.6870   -1.4170   21.5400 C   0  0  0  0  0  0  0  0  0  0  0  0
   12.0090   -1.2840   21.1570 C   0  0  0  0  0  0  0  0  0  0  0  0
   12.6500   -2.4090   19.9880 Cl  0  0  0  0  0  0  0  0  0  0  0  0
   12.7990   -0.2270   21.6170 C   0  0  0  0  0  0  0  0  0  0  0  0
   12.2480    0.6710   22.5100 C   0  0  0  0  0  0  0  0  0  0  0  0
   10.8990    0.5830   22.8680 C   0  0  0  0  0  0  0  0  0  0  0  0
   10.3240    1.7120   23.6870 C   0  0  0  0  0  0  0  0  0  0  0  0
   11.0090    2.6860   23.9920 O   0  0  0  0  0  0  0  0  0  0  0  0
   12.8390    1.4790   22.9270 H   0  0  0  0  0  0  0  0  0  0  0  0
   13.8090   -0.1000   21.2390 H   0  0  0  0  0  0  0  0  0  0  0  0
   10.1360   -2.2510   21.1200 H   0  0  0  0  0  0  0  0  0  0  0  0
    8.4150   -0.2600   24.7010 H   0  0  0  0  0  0  0  0  0  0  0  0
    7.1780    0.6530   23.8210 H   0  0  0  0  0  0  0  0  0  0  0  0
    9.0940    3.5380   24.7380 H   0  0  0  0  0  0  0  0  0  0  0  0
    7.7950    2.5830   25.4690 H   0  0  0  0  0  0  0  0  0  0  0  0
    6.7860    4.2290   23.9750 H   0  0  0  0  0  0  0  0  0  0  0  0
    6.5400    2.6430   23.2760 H   0  0  0  0  0  0  0  0  0  0  0  0
    7.0400    3.8360   21.1150 C   0  0  0  0  0  0  0  0  0  0  0  0
    5.9720    4.9180   21.2730 C   0  0  0  0  0  0  0  0  0  0  0  0
    6.3650    5.9600   22.1410 O   0  0  0  0  0  0  0  0  0  0  0  0
    5.8020    5.3400   20.2830 H   0  0  0  0  0  0  0  0  0  0  0  0
    5.0360    4.4860   21.6420 H   0  0  0  0  0  0  0  0  0  0  0  0
    6.5610    2.8710   21.0190 H   0  0  0  0  0  0  0  0  0  0  0  0
    7.6090    3.9670   20.1910 H   0  0  0  0  0  0  0  0  0  0  0  0
    8.6750    3.0820   22.0000 H   0  0  0  0  0  0  0  0  0  0  0  0
    8.8790    5.3670   23.4040 H   0  0  0  0  0  0  0  0  0  0  0  0
    9.5720    5.1840   21.7780 H   0  0  0  0  0  0  0  0  0  0  0  0
    7.8270    6.4340   20.7670 H   0  0  0  0  0  0  0  0  0  0  0  0
    7.7180    7.6270   23.5690 H   0  0  0  0  0  0  0  0  0  0  0  0
    7.2590    8.4030   22.0510 H   0  0  0  0  0  0  0  0  0  0  0  0
    8.9640    8.0180   22.3420 H   0  0  0  0  0  0  0  0  0  0  0  0
  1  2  1  0
  1 67  1  0
  1 68  1  0
  1 69  1  0
  2  3  1  0
  2 58  1  0
  2 66  1  6
  3  4  1  0
  3 64  1  0
  3 65  1  0
  4  5  1  0
  4 56  1  0
  4 63  1  6
  5  6  1  0
  5 54  1  0
  5 55  1  0
  6  7  1  0
  6 52  1  0
  6 53  1  0
  7  8  1  0
  7 45  1  0
  9  8  1  1
  8 50  1  0
  8 51  1  0
  9 10  1  0
  9 30  1  0
  9 38  1  0
 10 11  2  0
 10 12  1  0
 12 13  1  0
 12 29  1  0
 13 14  2  0
 13 22  1  0
 14 15  1  0
 14 28  1  0
 15 16  2  0
 16 17  1  0
 16 27  1  0
 17 18  1  0
 17 22  2  0
 18 19  2  0
 18 26  1  0
 19 20  1  0
 19 25  1  0
 20 21  2  0
 20 24  1  0
 21 22  1  0
 21 23  1  0
 29 30  1  0
 29 36  1  0
 29 37  1  0
 30 31  1  0
 30 35  1  6
 31 32  1  0
 31 33  1  0
 31 34  1  0
 38 39  2  0
 38 44  1  0
 39 40  1  0
 39 49  1  0
 40 41  1  0
 40 42  2  0
 42 43  1  0
 42 48  1  0
 43 44  2  0
 43 47  1  0
 44 45  1  0
 45 46  2  0
 56 57  1  0
 56 61  1  0
 56 62  1  0
 57 58  1  0
 57 59  1  0
 57 60  1  0
M  CHG  1   4   1
M  END
>  <MODEL>  (24) 
       1

>  <ApoScore>  (24) 
23.6530

$$$$
mol24_score_25.3334
     RDKit          3D

 70 75  0  0  1  0  0  0  0  0999 V2000
    6.8590   -8.5460   23.4470 C   0  0  0  0  0  0  0  0  0  0  0  0
    6.9140   -7.0770   23.2630 N   0  0  0  0  0  0  0  0  0  0  0  0
    6.5970   -6.6360   21.8660 C   0  0  0  0  0  0  0  0  0  0  0  0
    5.4480   -5.6160   21.8340 C   0  0  0  0  0  0  0  0  0  0  0  0
    5.7770   -4.3980   22.5720 N   0  0  0  0  0  0  0  0  0  0  0  0
    6.8190   -3.5890   21.9590 C   0  0  0  0  0  0  0  0  0  0  0  0
    6.8570   -2.1310   22.4990 C   0  0  2  0  0  0  0  0  0  0  0  0
    5.9000   -1.3380   21.6100 C   0  0  0  0  0  0  0  0  0  0  0  0
    4.6920   -1.4680   21.5850 O   0  0  0  0  0  0  0  0  0  0  0  0
    6.6320   -0.5590   20.7280 N   0  0  0  0  0  0  0  0  0  0  0  0
    5.9920    0.0360   19.6180 C   0  0  0  0  0  0  0  0  0  0  0  0
    6.3590   -0.2940   18.3360 C   0  0  0  0  0  0  0  0  0  0  0  0
    5.7620    0.1830   17.2170 N   0  0  0  0  0  0  0  0  0  0  0  0
    4.7700    1.0290   17.3790 C   0  0  0  0  0  0  0  0  0  0  0  0
    4.2910    1.4580   18.6460 C   0  0  0  0  0  0  0  0  0  0  0  0
    3.2170    2.3800   18.7560 C   0  0  0  0  0  0  0  0  0  0  0  0
    2.7360    2.7490   19.9850 C   0  0  0  0  0  0  0  0  0  0  0  0
    3.3390    2.2370   21.1540 C   0  0  0  0  0  0  0  0  0  0  0  0
    4.4060    1.3800   21.0760 C   0  0  0  0  0  0  0  0  0  0  0  0
    4.9030    0.9510   19.8090 C   0  0  0  0  0  0  0  0  0  0  0  0
    4.8570    1.0180   21.9910 H   0  0  0  0  0  0  0  0  0  0  0  0
    2.9450    2.5170   22.1280 H   0  0  0  0  0  0  0  0  0  0  0  0
    1.9050    3.4440   20.0670 H   0  0  0  0  0  0  0  0  0  0  0  0
    2.7910    2.7870   17.8450 H   0  0  0  0  0  0  0  0  0  0  0  0
    4.2880    1.4150   16.4810 H   0  0  0  0  0  0  0  0  0  0  0  0
    7.1580   -1.0140   18.1600 H   0  0  0  0  0  0  0  0  0  0  0  0
    8.0800   -0.7620   20.8500 C   0  0  0  0  0  0  0  0  0  0  0  0
    8.2190   -1.4750   22.2070 C   0  0  2  0  0  0  0  0  0  0  0  0
    9.3940   -2.4450   22.3720 C   0  0  0  0  0  0  0  0  0  0  0  0
   10.6300   -1.7940   22.3160 O   0  0  0  0  0  0  0  0  0  0  0  0
   11.0930   -1.2970   23.5550 C   0  0  0  0  0  0  0  0  0  0  0  0
   12.0530   -0.2030   23.1570 C   0  0  0  0  0  0  0  0  0  0  0  0
   11.3860    0.9610   22.4140 C   0  0  0  0  0  0  0  0  0  0  0  0
   12.1180    1.9230   23.1820 O   0  0  0  0  0  0  0  0  0  0  0  0
   12.5180    0.9010   24.1070 C   0  0  0  0  0  0  0  0  0  0  0  0
   11.9330    0.9600   25.0340 H   0  0  0  0  0  0  0  0  0  0  0  0
   13.5890    0.9530   24.3130 H   0  0  0  0  0  0  0  0  0  0  0  0
   11.5540    1.0410   21.3410 H   0  0  0  0  0  0  0  0  0  0  0  0
   10.3100    1.0330   22.6220 H   0  0  0  0  0  0  0  0  0  0  0  0
   12.8670   -0.6450   22.5790 H   0  0  0  0  0  0  0  0  0  0  0  0
   11.5570   -2.1080   24.1400 H   0  0  0  0  0  0  0  0  0  0  0  0
   10.2620   -0.8960   24.1640 H   0  0  0  0  0  0  0  0  0  0  0  0
    9.2910   -3.0060   23.3250 H   0  0  0  0  0  0  0  0  0  0  0  0
    9.4120   -3.1710   21.5520 H   0  0  0  0  0  0  0  0  0  0  0  0
    8.3640   -0.6860   22.9500 H   0  0  0  0  0  0  0  0  0  0  0  0
    8.6070    0.1980   20.8450 H   0  0  0  0  0  0  0  0  0  0  0  0
    8.4920   -1.3750   20.0390 H   0  0  0  0  0  0  0  0  0  0  0  0
    6.5240   -2.0670   23.9750 C   0  0  0  0  0  0  0  0  0  0  0  0
    6.7670   -0.8950   24.7160 C   0  0  0  0  0  0  0  0  0  0  0  0
    6.5860   -0.8980   26.0860 C   0  0  0  0  0  0  0  0  0  0  0  0
    6.9940    0.5230   27.0040 Cl  0  0  0  0  0  0  0  0  0  0  0  0
    6.1200   -2.0220   26.7670 C   0  0  0  0  0  0  0  0  0  0  0  0
    5.8140   -3.1470   26.0330 C   0  0  0  0  0  0  0  0  0  0  0  0
    6.0070   -3.1710   24.6540 C   0  0  0  0  0  0  0  0  0  0  0  0
    5.6410   -4.4160   23.9280 C   0  0  0  0  0  0  0  0  0  0  0  0
    5.2400   -5.4170   24.5320 O   0  0  0  0  0  0  0  0  0  0  0  0
    5.4190   -4.0460   26.4900 H   0  0  0  0  0  0  0  0  0  0  0  0
    5.9900   -2.0030   27.8440 H   0  0  0  0  0  0  0  0  0  0  0  0
    7.0890    0.0270   24.2370 H   0  0  0  0  0  0  0  0  0  0  0  0
    7.7930   -4.0640   22.1090 H   0  0  0  0  0  0  0  0  0  0  0  0
    6.6370   -3.5710   20.8790 H   0  0  0  0  0  0  0  0  0  0  0  0
    5.2330   -5.3340   20.8000 H   0  0  0  0  0  0  0  0  0  0  0  0
    4.5320   -6.0340   22.2630 H   0  0  0  0  0  0  0  0  0  0  0  0
    7.4820   -6.1820   21.4060 H   0  0  0  0  0  0  0  0  0  0  0  0
    6.3410   -7.5140   21.2720 H   0  0  0  0  0  0  0  0  0  0  0  0
    6.2070   -6.6490   23.8980 H   0  0  0  0  0  0  0  0  0  0  0  0
    7.8540   -6.7460   23.5580 H   0  0  0  0  0  0  0  0  0  0  0  0
    5.8240   -8.8600   23.6080 H   0  0  0  0  0  0  0  0  0  0  0  0
    7.2380   -9.0690   22.5610 H   0  0  0  0  0  0  0  0  0  0  0  0
    7.4670   -8.8330   24.3060 H   0  0  0  0  0  0  0  0  0  0  0  0
  1  2  1  0
  1 68  1  0
  1 69  1  0
  1 70  1  0
  2  3  1  0
  2 66  1  0
  2 67  1  0
  3  4  1  0
  3 64  1  0
  3 65  1  0
  4  5  1  0
  4 62  1  0
  4 63  1  0
  5  6  1  0
  5 55  1  0
  7  6  1  6
  6 60  1  0
  6 61  1  0
  7  8  1  0
  7 28  1  0
  7 48  1  0
  8  9  2  0
  8 10  1  0
 10 11  1  0
 10 27  1  0
 11 12  2  0
 11 20  1  0
 12 13  1  0
 12 26  1  0
 13 14  2  0
 14 15  1  0
 14 25  1  0
 15 16  1  0
 15 20  2  0
 16 17  2  0
 16 24  1  0
 17 18  1  0
 17 23  1  0
 18 19  2  0
 18 22  1  0
 19 20  1  0
 19 21  1  0
 27 28  1  0
 27 46  1  0
 27 47  1  0
 28 29  1  0
 28 45  1  1
 29 30  1  0
 29 43  1  0
 29 44  1  0
 30 31  1  0
 31 32  1  0
 31 41  1  0
 31 42  1  0
 32 33  1  0
 32 35  1  0
 32 40  1  0
 33 34  1  0
 33 38  1  0
 33 39  1  0
 34 35  1  0
 35 36  1  0
 35 37  1  0
 48 49  1  0
 48 54  2  0
 49 50  2  0
 49 59  1  0
 50 51  1  0
 50 52  1  0
 52 53  2  0
 52 58  1  0
 53 54  1  0
 53 57  1  0
 54 55  1  0
 55 56  2  0
M  CHG  1   2   1
M  END
>  <MODEL>  (25) 
       1

>  <ApoScore>  (25) 
25.3334

$$$$
mol25_score_31.1406
     RDKit          3D

 68 73  0  0  1  0  0  0  0  0999 V2000
    6.4680    4.3150   21.3520 C   0  0  0  0  0  0  0  0  0  0  0  0
    7.4680    3.9350   22.3420 N   0  0  0  0  0  0  0  0  0  0  0  0
    7.0220    3.3160   23.4780 C   0  0  0  0  0  0  0  0  0  0  0  0
    5.8340    3.1250   23.6850 O   0  0  0  0  0  0  0  0  0  0  0  0
    8.0800    2.8700   24.4920 C   0  0  0  0  0  0  0  0  0  0  0  0
    8.7180    1.6350   24.0590 N   0  0  0  0  0  0  0  0  0  0  0  0
    7.9240    0.4180   23.9020 C   0  0  0  0  0  0  0  0  0  0  0  0
    8.3670   -0.4430   22.6850 C   0  0  2  0  0  0  0  0  0  0  0  0
    7.9200    0.2190   21.3580 C   0  0  0  0  0  0  0  0  0  0  0  0
    8.4250    1.1880   20.8200 O   0  0  0  0  0  0  0  0  0  0  0  0
    6.8560   -0.4800   20.8430 N   0  0  0  0  0  0  0  0  0  0  0  0
    6.1130    0.0520   19.7620 C   0  0  0  0  0  0  0  0  0  0  0  0
    6.4800   -0.2300   18.4730 C   0  0  0  0  0  0  0  0  0  0  0  0
    5.8170    0.2170   17.3800 N   0  0  0  0  0  0  0  0  0  0  0  0
    4.7790    0.9950   17.5810 C   0  0  0  0  0  0  0  0  0  0  0  0
    4.3090    1.3860   18.8680 C   0  0  0  0  0  0  0  0  0  0  0  0
    3.2030    2.2590   19.0410 C   0  0  0  0  0  0  0  0  0  0  0  0
    2.7980    2.6300   20.2950 C   0  0  0  0  0  0  0  0  0  0  0  0
    3.4850    2.1580   21.4370 C   0  0  0  0  0  0  0  0  0  0  0  0
    4.5610    1.3150   21.2950 C   0  0  0  0  0  0  0  0  0  0  0  0
    4.9940    0.9000   20.0050 C   0  0  0  0  0  0  0  0  0  0  0  0
    5.1310    1.0190   22.1720 H   0  0  0  0  0  0  0  0  0  0  0  0
    3.1900    2.4930   22.4270 H   0  0  0  0  0  0  0  0  0  0  0  0
    1.9530    3.3010   20.4210 H   0  0  0  0  0  0  0  0  0  0  0  0
    2.7040    2.6360   18.1530 H   0  0  0  0  0  0  0  0  0  0  0  0
    4.2470    1.3620   16.7010 H   0  0  0  0  0  0  0  0  0  0  0  0
    7.3570   -0.8470   18.2850 H   0  0  0  0  0  0  0  0  0  0  0  0
    6.4170   -1.5790   21.6750 C   0  0  0  0  0  0  0  0  0  0  0  0
    7.6310   -1.8180   22.5780 C   0  0  2  0  0  0  0  0  0  0  0  0
    7.2760   -2.5680   23.8530 C   0  0  0  0  0  0  0  0  0  0  0  0
    8.4420   -3.1780   24.4410 N   0  0  0  0  0  0  0  0  0  0  0  0
    8.3210   -3.7500   25.7110 C   0  0  0  0  0  0  0  0  0  0  0  0
    7.2050   -3.8540   26.5820 C   0  0  0  0  0  0  0  0  0  0  0  0
    7.5310   -4.4620   27.7200 N   0  0  0  0  0  0  0  0  0  0  0  0
    8.8320   -4.7490   27.6030 N   0  0  0  0  0  0  0  0  0  0  0  0
    9.5530   -5.2890   28.7340 C   0  0  0  0  0  0  0  0  0  0  0  0
    9.4920   -4.5920   29.5740 H   0  0  0  0  0  0  0  0  0  0  0  0
    9.1310   -6.2500   29.0380 H   0  0  0  0  0  0  0  0  0  0  0  0
   10.6020   -5.4260   28.4630 H   0  0  0  0  0  0  0  0  0  0  0  0
    9.3420   -4.3600   26.4090 C   0  0  0  0  0  0  0  0  0  0  0  0
   10.3710   -4.5560   26.1360 H   0  0  0  0  0  0  0  0  0  0  0  0
    6.1940   -3.4840   26.4460 H   0  0  0  0  0  0  0  0  0  0  0  0
    9.2870   -2.6240   24.3390 H   0  0  0  0  0  0  0  0  0  0  0  0
    6.5610   -3.3610   23.6140 H   0  0  0  0  0  0  0  0  0  0  0  0
    6.7600   -1.9020   24.5590 H   0  0  0  0  0  0  0  0  0  0  0  0
    8.2950   -2.4790   22.0180 H   0  0  0  0  0  0  0  0  0  0  0  0
    5.5170   -1.3200   22.2540 H   0  0  0  0  0  0  0  0  0  0  0  0
    6.1760   -2.4610   21.0690 H   0  0  0  0  0  0  0  0  0  0  0  0
    9.8800   -0.5280   22.6680 C   0  0  0  0  0  0  0  0  0  0  0  0
   10.5080   -1.3990   21.7710 C   0  0  0  0  0  0  0  0  0  0  0  0
   11.8720   -1.3510   21.5720 C   0  0  0  0  0  0  0  0  0  0  0  0
   12.4780   -2.3730   20.2890 Cl  0  0  0  0  0  0  0  0  0  0  0  0
   12.6760   -0.4770   22.3150 C   0  0  0  0  0  0  0  0  0  0  0  0
   12.0670    0.3690   23.2180 C   0  0  0  0  0  0  0  0  0  0  0  0
   10.6790    0.4070   23.3380 C   0  0  0  0  0  0  0  0  0  0  0  0
   10.0850    1.5840   24.0510 C   0  0  0  0  0  0  0  0  0  0  0  0
   10.7860    2.4690   24.5280 O   0  0  0  0  0  0  0  0  0  0  0  0
   12.6610    1.0600   23.8080 H   0  0  0  0  0  0  0  0  0  0  0  0
   13.7440   -0.3880   22.1710 H   0  0  0  0  0  0  0  0  0  0  0  0
    9.9540   -2.0800   21.1380 H   0  0  0  0  0  0  0  0  0  0  0  0
    8.0110   -0.1740   24.8230 H   0  0  0  0  0  0  0  0  0  0  0  0
    6.8750    0.7020   23.7870 H   0  0  0  0  0  0  0  0  0  0  0  0
    8.8770    3.6140   24.5810 H   0  0  0  0  0  0  0  0  0  0  0  0
    7.6180    2.7640   25.4860 H   0  0  0  0  0  0  0  0  0  0  0  0
    8.3850    3.6740   22.0010 H   0  0  0  0  0  0  0  0  0  0  0  0
    5.9970    3.4280   20.9090 H   0  0  0  0  0  0  0  0  0  0  0  0
    6.9280    4.9140   20.5640 H   0  0  0  0  0  0  0  0  0  0  0  0
    5.6990    4.9210   21.8430 H   0  0  0  0  0  0  0  0  0  0  0  0
  1  2  1  0
  1 66  1  0
  1 67  1  0
  1 68  1  0
  2  3  1  0
  2 65  1  0
  3  4  2  0
  3  5  1  0
  5  6  1  0
  5 63  1  0
  5 64  1  0
  6  7  1  0
  6 56  1  0
  8  7  1  1
  7 61  1  0
  7 62  1  0
  8  9  1  0
  8 29  1  0
  8 49  1  0
  9 10  2  0
  9 11  1  0
 11 12  1  0
 11 28  1  0
 12 13  2  0
 12 21  1  0
 13 14  1  0
 13 27  1  0
 14 15  2  0
 15 16  1  0
 15 26  1  0
 16 17  1  0
 16 21  2  0
 17 18  2  0
 17 25  1  0
 18 19  1  0
 18 24  1  0
 19 20  2  0
 19 23  1  0
 20 21  1  0
 20 22  1  0
 28 29  1  0
 28 47  1  0
 28 48  1  0
 29 30  1  0
 29 46  1  6
 30 31  1  0
 30 44  1  0
 30 45  1  0
 31 32  1  0
 31 43  1  0
 32 33  1  0
 32 40  2  0
 33 34  2  0
 33 42  1  0
 34 35  1  0
 35 36  1  0
 35 40  1  0
 36 37  1  0
 36 38  1  0
 36 39  1  0
 40 41  1  0
 49 50  1  0
 49 55  2  0
 50 51  2  0
 50 60  1  0
 51 52  1  0
 51 53  1  0
 53 54  2  0
 53 59  1  0
 54 55  1  0
 54 58  1  0
 55 56  1  0
 56 57  2  0
M  END
>  <MODEL>  (26) 
       1

>  <ApoScore>  (26) 
31.1406

$$$$
mol26_score_18.0151
     RDKit          3D

 43 47  0  0  1  0  0  0  0  0999 V2000
    8.9730    0.4870   20.6040 O   0  0  0  0  0  0  0  0  0  0  0  0
    8.2750   -0.3970   21.0310 C   0  0  0  0  0  0  0  0  0  0  0  0
    8.6430   -1.4470   21.8290 N   0  0  0  0  0  0  0  0  0  0  0  0
    7.5290   -2.0980   22.4780 C   0  0  1  0  0  0  0  0  0  0  0  0
    7.5630   -3.6360   22.5480 C   0  0  0  0  0  0  0  0  0  0  0  0
    7.5960   -3.5920   24.1040 C   0  0  2  0  0  0  0  0  0  0  0  0
    6.4920   -4.3190   24.8360 C   0  0  0  0  0  0  0  0  0  0  0  0
    5.8180   -5.4000   24.2610 C   0  0  0  0  0  0  0  0  0  0  0  0
    4.7840   -6.0490   24.9230 C   0  0  0  0  0  0  0  0  0  0  0  0
    4.4040   -5.6360   26.1990 C   0  0  0  0  0  0  0  0  0  0  0  0
    5.0860   -4.5910   26.8150 C   0  0  0  0  0  0  0  0  0  0  0  0
    6.1290   -3.9660   26.1400 C   0  0  0  0  0  0  0  0  0  0  0  0
    7.0140   -2.7070   26.9720 Cl  0  0  0  0  0  0  0  0  0  0  0  0
    4.8290   -4.2530   27.8140 H   0  0  0  0  0  0  0  0  0  0  0  0
    3.5960   -6.1370   26.7260 H   0  0  0  0  0  0  0  0  0  0  0  0
    4.2780   -6.8770   24.4340 H   0  0  0  0  0  0  0  0  0  0  0  0
    6.1220   -5.7210   23.2680 H   0  0  0  0  0  0  0  0  0  0  0  0
    7.4740   -2.0370   24.0270 C   0  0  0  0  0  0  0  0  0  0  0  0
    8.3100   -1.4900   24.4780 H   0  0  0  0  0  0  0  0  0  0  0  0
    6.5330   -1.6320   24.4130 H   0  0  0  0  0  0  0  0  0  0  0  0
    8.5750   -3.8980   24.5060 H   0  0  0  0  0  0  0  0  0  0  0  0
    6.6640   -4.0700   22.1000 H   0  0  0  0  0  0  0  0  0  0  0  0
    8.4510   -4.0550   22.0700 H   0  0  0  0  0  0  0  0  0  0  0  0
    6.3440   -1.4980   21.7320 C   0  0  0  0  0  0  0  0  0  0  0  0
    5.1760   -1.7730   21.8840 O   0  0  0  0  0  0  0  0  0  0  0  0
    6.8700   -0.5470   20.8450 N   0  0  0  0  0  0  0  0  0  0  0  0
    6.1260    0.0570   19.7840 C   0  0  0  0  0  0  0  0  0  0  0  0
    6.4590   -0.2280   18.4820 C   0  0  0  0  0  0  0  0  0  0  0  0
    5.7820    0.2350   17.4060 N   0  0  0  0  0  0  0  0  0  0  0  0
    4.7570    1.0180   17.6180 C   0  0  0  0  0  0  0  0  0  0  0  0
    4.3090    1.4110   18.9070 C   0  0  0  0  0  0  0  0  0  0  0  0
    3.1820    2.2610   19.0700 C   0  0  0  0  0  0  0  0  0  0  0  0
    2.7800    2.6470   20.3160 C   0  0  0  0  0  0  0  0  0  0  0  0
    3.4910    2.1910   21.4490 C   0  0  0  0  0  0  0  0  0  0  0  0
    4.5780    1.3620   21.3180 C   0  0  0  0  0  0  0  0  0  0  0  0
    5.0150    0.9320   20.0330 C   0  0  0  0  0  0  0  0  0  0  0  0
    5.1050    1.0140   22.2010 H   0  0  0  0  0  0  0  0  0  0  0  0
    3.1680    2.5000   22.4370 H   0  0  0  0  0  0  0  0  0  0  0  0
    1.9270    3.3110   20.4390 H   0  0  0  0  0  0  0  0  0  0  0  0
    2.6640    2.6050   18.1790 H   0  0  0  0  0  0  0  0  0  0  0  0
    4.2280    1.3790   16.7380 H   0  0  0  0  0  0  0  0  0  0  0  0
    7.3000   -0.8780   18.2560 H   0  0  0  0  0  0  0  0  0  0  0  0
    9.6010   -1.5850   22.1090 H   0  0  0  0  0  0  0  0  0  0  0  0
  1  2  2  0
  2  3  1  0
  2 26  1  0
  4  3  1  6
  3 43  1  0
  4  5  1  0
  4 18  1  0
  4 24  1  0
  5  6  1  0
  5 22  1  0
  5 23  1  0
  6  7  1  0
  6 18  1  0
  6 21  1  1
  7  8  2  0
  7 12  1  0
  8  9  1  0
  8 17  1  0
  9 10  2  0
  9 16  1  0
 10 11  1  0
 10 15  1  0
 11 12  2  0
 11 14  1  0
 12 13  1  0
 18 19  1  0
 18 20  1  0
 24 25  2  0
 24 26  1  0
 26 27  1  0
 27 28  2  0
 27 36  1  0
 28 29  1  0
 28 42  1  0
 29 30  2  0
 30 31  1  0
 30 41  1  0
 31 32  1  0
 31 36  2  0
 32 33  2  0
 32 40  1  0
 33 34  1  0
 33 39  1  0
 34 35  2  0
 34 38  1  0
 35 36  1  0
 35 37  1  0
M  END
>  <MODEL>  (27) 
       1

>  <ApoScore>  (27) 
18.0151

$$$$
mol27_score_15.4924
     RDKit          3D

 46 48  0  0  1  0  0  0  0  0999 V2000
    7.6410    0.6570   24.4150 C   0  0  0  0  0  0  0  0  0  0  0  0
    7.8400   -0.8000   24.7990 C   0  0  0  0  0  0  0  0  0  0  0  0
    7.7530   -1.7560   23.6050 C   0  0  1  0  0  0  0  0  0  0  0  0
    8.2460   -3.1880   23.9090 C   0  0  0  0  0  0  0  0  0  0  0  0
    7.2350   -4.1510   24.5480 C   0  0  1  0  0  0  0  0  0  0  0  0
    7.2220   -4.1400   26.0740 C   0  0  0  0  0  0  0  0  0  0  0  0
    6.5770   -3.0790   26.6030 F   0  0  0  0  0  0  0  0  0  0  0  0
    8.4580   -4.1520   26.6060 F   0  0  0  0  0  0  0  0  0  0  0  0
    6.5930   -5.2360   26.5540 F   0  0  0  0  0  0  0  0  0  0  0  0
    5.8330   -3.9980   23.9560 C   0  0  0  0  0  0  0  0  0  0  0  0
    5.4200   -2.5410   23.7730 C   0  0  0  0  0  0  0  0  0  0  0  0
    6.4110   -1.7870   23.0040 N   0  0  0  0  0  0  0  0  0  0  0  0
    6.1770   -1.6260   21.6390 C   0  0  0  0  0  0  0  0  0  0  0  0
    5.3620   -2.3070   21.0440 O   0  0  0  0  0  0  0  0  0  0  0  0
    6.9250   -0.4890   20.9080 C   0  0  0  0  0  0  0  0  0  0  0  0
    6.1180    0.0900   19.7670 C   0  0  0  0  0  0  0  0  0  0  0  0
    6.4220   -0.2140   18.4630 C   0  0  0  0  0  0  0  0  0  0  0  0
    5.7590    0.2380   17.3630 N   0  0  0  0  0  0  0  0  0  0  0  0
    4.7360    1.0320   17.5750 C   0  0  0  0  0  0  0  0  0  0  0  0
    4.2870    1.4220   18.8680 C   0  0  0  0  0  0  0  0  0  0  0  0
    3.1640    2.2720   19.0440 C   0  0  0  0  0  0  0  0  0  0  0  0
    2.7500    2.6280   20.3010 C   0  0  0  0  0  0  0  0  0  0  0  0
    3.4430    2.1440   21.4320 C   0  0  0  0  0  0  0  0  0  0  0  0
    4.5320    1.3170   21.2870 C   0  0  0  0  0  0  0  0  0  0  0  0
    4.9900    0.9360   19.9970 C   0  0  0  0  0  0  0  0  0  0  0  0
    5.0420    0.9490   22.1720 H   0  0  0  0  0  0  0  0  0  0  0  0
    3.1050    2.4240   22.4240 H   0  0  0  0  0  0  0  0  0  0  0  0
    1.8930    3.2820   20.4370 H   0  0  0  0  0  0  0  0  0  0  0  0
    2.6440    2.6440   18.1640 H   0  0  0  0  0  0  0  0  0  0  0  0
    4.1990    1.4010   16.6990 H   0  0  0  0  0  0  0  0  0  0  0  0
    7.2650   -0.8670   18.2460 H   0  0  0  0  0  0  0  0  0  0  0  0
    7.2160    0.3040   21.6130 H   0  0  0  0  0  0  0  0  0  0  0  0
    7.8580   -0.9070   20.5090 H   0  0  0  0  0  0  0  0  0  0  0  0
    4.4600   -2.4840   23.2570 H   0  0  0  0  0  0  0  0  0  0  0  0
    5.2880   -2.0700   24.7510 H   0  0  0  0  0  0  0  0  0  0  0  0
    5.8240   -4.4630   22.9680 H   0  0  0  0  0  0  0  0  0  0  0  0
    5.0980   -4.5400   24.5650 H   0  0  0  0  0  0  0  0  0  0  0  0
    7.5820   -5.1700   24.3410 H   0  0  0  0  0  0  0  0  0  0  0  0
    8.5470   -3.6350   22.9560 H   0  0  0  0  0  0  0  0  0  0  0  0
    9.1580   -3.1440   24.5130 H   0  0  0  0  0  0  0  0  0  0  0  0
    8.4350   -1.3650   22.8430 H   0  0  0  0  0  0  0  0  0  0  0  0
    8.8330   -0.9060   25.2550 H   0  0  0  0  0  0  0  0  0  0  0  0
    7.1250   -1.0880   25.5710 H   0  0  0  0  0  0  0  0  0  0  0  0
    7.7470    1.3090   25.2860 H   0  0  0  0  0  0  0  0  0  0  0  0
    8.3790    0.9800   23.6720 H   0  0  0  0  0  0  0  0  0  0  0  0
    6.6440    0.8190   23.9960 H   0  0  0  0  0  0  0  0  0  0  0  0
  1  2  1  0
  1 44  1  0
  1 45  1  0
  1 46  1  0
  2  3  1  0
  2 42  1  0
  2 43  1  0
  3  4  1  0
  3 12  1  0
  3 41  1  6
  4  5  1  0
  4 39  1  0
  4 40  1  0
  5  6  1  0
  5 10  1  0
  5 38  1  1
  6  7  1  0
  6  8  1  0
  6  9  1  0
 10 11  1  0
 10 36  1  0
 10 37  1  0
 11 12  1  0
 11 34  1  0
 11 35  1  0
 12 13  1  0
 13 14  2  0
 13 15  1  0
 15 16  1  0
 15 32  1  0
 15 33  1  0
 16 17  2  0
 16 25  1  0
 17 18  1  0
 17 31  1  0
 18 19  2  0
 19 20  1  0
 19 30  1  0
 20 21  1  0
 20 25  2  0
 21 22  2  0
 21 29  1  0
 22 23  1  0
 22 28  1  0
 23 24  2  0
 23 27  1  0
 24 25  1  0
 24 26  1  0
M  END
>  <MODEL>  (28) 
       1

>  <ApoScore>  (28) 
15.4924

$$$$
mol28_score_24.4755
     RDKit          3D

 70 75  0  0  1  0  0  0  0  0999 V2000
    4.7910   -7.6190   20.2310 C   0  0  0  0  0  0  0  0  0  0  0  0
    5.2110   -6.2920   19.6980 N   0  0  0  0  0  0  0  0  0  0  0  0
    5.3470   -5.2720   20.7790 C   0  0  0  0  0  0  0  0  0  0  0  0
    6.6380   -5.4790   21.5720 C   0  0  0  0  0  0  0  0  0  0  0  0
    6.8040   -4.3850   22.5050 N   0  0  0  0  0  0  0  0  0  0  0  0
    7.7900   -3.3750   22.2450 C   0  0  0  0  0  0  0  0  0  0  0  0
    7.3400   -1.9470   22.6420 C   0  0  2  0  0  0  0  0  0  0  0  0
    6.2580   -1.4770   21.6460 C   0  0  0  0  0  0  0  0  0  0  0  0
    5.1240   -1.9030   21.5540 O   0  0  0  0  0  0  0  0  0  0  0  0
    6.7930   -0.5050   20.8280 N   0  0  0  0  0  0  0  0  0  0  0  0
    6.0770    0.0550   19.7560 C   0  0  0  0  0  0  0  0  0  0  0  0
    6.4500   -0.2090   18.4630 C   0  0  0  0  0  0  0  0  0  0  0  0
    5.7990    0.2520   17.3690 N   0  0  0  0  0  0  0  0  0  0  0  0
    4.7590    1.0250   17.5750 C   0  0  0  0  0  0  0  0  0  0  0  0
    4.3000    1.4140   18.8670 C   0  0  0  0  0  0  0  0  0  0  0  0
    3.1850    2.2750   19.0330 C   0  0  0  0  0  0  0  0  0  0  0  0
    2.7880    2.6590   20.2840 C   0  0  0  0  0  0  0  0  0  0  0  0
    3.4840    2.2060   21.4280 C   0  0  0  0  0  0  0  0  0  0  0  0
    4.5610    1.3650   21.2970 C   0  0  0  0  0  0  0  0  0  0  0  0
    4.9800    0.9340   20.0040 C   0  0  0  0  0  0  0  0  0  0  0  0
    5.1000    1.0190   22.1740 H   0  0  0  0  0  0  0  0  0  0  0  0
    3.1600    2.5240   22.4160 H   0  0  0  0  0  0  0  0  0  0  0  0
    1.9370    3.3230   20.4100 H   0  0  0  0  0  0  0  0  0  0  0  0
    2.6740    2.6340   18.1440 H   0  0  0  0  0  0  0  0  0  0  0  0
    4.2260    1.3920   16.6980 H   0  0  0  0  0  0  0  0  0  0  0  0
    7.3050   -0.8560   18.2700 H   0  0  0  0  0  0  0  0  0  0  0  0
    8.2260   -0.3660   20.9570 C   0  0  0  0  0  0  0  0  0  0  0  0
    8.4940   -0.9570   22.3480 C   0  0  2  0  0  0  0  0  0  0  0  0
    9.8450   -1.6220   22.3920 C   0  0  0  0  0  0  0  0  0  0  0  0
   10.8340   -0.6760   22.0630 O   0  0  0  0  0  0  0  0  0  0  0  0
   12.0980   -1.1820   22.4070 C   0  0  0  0  0  0  0  0  0  0  0  0
   12.4550   -0.7210   23.7990 C   0  0  0  0  0  0  0  0  0  0  0  0
   11.6110   -1.3130   24.7150 F   0  0  0  0  0  0  0  0  0  0  0  0
   13.9510   -0.7610   24.0600 C   0  0  0  0  0  0  0  0  0  0  0  0
   14.0370    0.5850   23.5580 O   0  0  0  0  0  0  0  0  0  0  0  0
   12.6480    0.7940   23.8780 C   0  0  0  0  0  0  0  0  0  0  0  0
   12.5460    1.1720   24.9000 H   0  0  0  0  0  0  0  0  0  0  0  0
   12.1370    1.4530   23.1710 H   0  0  0  0  0  0  0  0  0  0  0  0
   14.5530   -1.4840   23.5040 H   0  0  0  0  0  0  0  0  0  0  0  0
   14.1720   -0.8070   25.1320 H   0  0  0  0  0  0  0  0  0  0  0  0
   12.8350   -0.8290   21.6910 H   0  0  0  0  0  0  0  0  0  0  0  0
   12.1100   -2.2810   22.3740 H   0  0  0  0  0  0  0  0  0  0  0  0
    9.9150   -2.4320   21.6500 H   0  0  0  0  0  0  0  0  0  0  0  0
   10.0170   -2.0520   23.3860 H   0  0  0  0  0  0  0  0  0  0  0  0
    8.5050   -0.1350   23.0670 H   0  0  0  0  0  0  0  0  0  0  0  0
    8.5250    0.6830   20.8780 H   0  0  0  0  0  0  0  0  0  0  0  0
    8.7640   -0.9150   20.1700 H   0  0  0  0  0  0  0  0  0  0  0  0
    6.8610   -2.0170   24.0800 C   0  0  0  0  0  0  0  0  0  0  0  0
    6.8780   -0.9010   24.9300 C   0  0  0  0  0  0  0  0  0  0  0  0
    6.4080   -1.0130   26.2280 C   0  0  0  0  0  0  0  0  0  0  0  0
    6.3840    0.4030   27.2480 Cl  0  0  0  0  0  0  0  0  0  0  0  0
    5.9390   -2.2230   26.7370 C   0  0  0  0  0  0  0  0  0  0  0  0
    5.9110   -3.3210   25.9020 C   0  0  0  0  0  0  0  0  0  0  0  0
    6.3370   -3.2230   24.5800 C   0  0  0  0  0  0  0  0  0  0  0  0
    6.1890   -4.4450   23.7170 C   0  0  0  0  0  0  0  0  0  0  0  0
    5.5500   -5.4280   24.0760 O   0  0  0  0  0  0  0  0  0  0  0  0
    5.5490   -4.2790   26.2600 H   0  0  0  0  0  0  0  0  0  0  0  0
    5.5870   -2.2840   27.7620 H   0  0  0  0  0  0  0  0  0  0  0  0
    7.2420    0.0650   24.5950 H   0  0  0  0  0  0  0  0  0  0  0  0
    8.7000   -3.6410   22.7950 H   0  0  0  0  0  0  0  0  0  0  0  0
    7.9990   -3.3630   21.1800 H   0  0  0  0  0  0  0  0  0  0  0  0
    7.5010   -5.5030   20.8930 H   0  0  0  0  0  0  0  0  0  0  0  0
    6.6340   -6.4150   22.1430 H   0  0  0  0  0  0  0  0  0  0  0  0
    5.3300   -4.2690   20.3540 H   0  0  0  0  0  0  0  0  0  0  0  0
    4.5060   -5.3660   21.4700 H   0  0  0  0  0  0  0  0  0  0  0  0
    4.5680   -5.9650   18.9590 H   0  0  0  0  0  0  0  0  0  0  0  0
    6.1530   -6.3970   19.2620 H   0  0  0  0  0  0  0  0  0  0  0  0
    4.3140   -8.1980   19.4450 H   0  0  0  0  0  0  0  0  0  0  0  0
    5.6430   -8.1700   20.6270 H   0  0  0  0  0  0  0  0  0  0  0  0
    4.0830   -7.5020   21.0570 H   0  0  0  0  0  0  0  0  0  0  0  0
  1  2  1  0
  1 68  1  0
  1 69  1  0
  1 70  1  0
  2  3  1  0
  2 66  1  0
  2 67  1  0
  3  4  1  0
  3 64  1  0
  3 65  1  0
  4  5  1  0
  4 62  1  0
  4 63  1  0
  5  6  1  0
  5 55  1  0
  7  6  1  6
  6 60  1  0
  6 61  1  0
  7  8  1  0
  7 28  1  0
  7 48  1  0
  8  9  2  0
  8 10  1  0
 10 11  1  0
 10 27  1  0
 11 12  2  0
 11 20  1  0
 12 13  1  0
 12 26  1  0
 13 14  2  0
 14 15  1  0
 14 25  1  0
 15 16  1  0
 15 20  2  0
 16 17  2  0
 16 24  1  0
 17 18  1  0
 17 23  1  0
 18 19  2  0
 18 22  1  0
 19 20  1  0
 19 21  1  0
 27 28  1  0
 27 46  1  0
 27 47  1  0
 28 29  1  0
 28 45  1  1
 29 30  1  0
 29 43  1  0
 29 44  1  0
 30 31  1  0
 31 32  1  0
 31 41  1  0
 31 42  1  0
 32 33  1  0
 32 34  1  0
 32 36  1  0
 34 35  1  0
 34 39  1  0
 34 40  1  0
 35 36  1  0
 36 37  1  0
 36 38  1  0
 48 49  1  0
 48 54  2  0
 49 50  2  0
 49 59  1  0
 50 51  1  0
 50 52  1  0
 52 53  2  0
 52 58  1  0
 53 54  1  0
 53 57  1  0
 54 55  1  0
 55 56  2  0
M  CHG  1   2   1
M  END
>  <MODEL>  (29) 
       1

>  <ApoScore>  (29) 
24.4755

$$$$
mol29_score_28.5541
     RDKit          3D

 67 72  0  0  1  0  0  0  0  0999 V2000
    6.4150    4.0460   22.7560 C   0  0  0  0  0  0  0  0  0  0  0  0
    7.6180    3.3620   22.2540 N   0  0  0  0  0  0  0  0  0  0  0  0
    8.7850    3.4320   23.1710 C   0  0  0  0  0  0  0  0  0  0  0  0
    8.7820    2.4700   24.3780 C   0  0  0  0  0  0  0  0  0  0  0  0
    9.1690    1.0910   24.1190 N   0  0  0  0  0  0  0  0  0  0  0  0
    8.1610    0.0880   23.8670 C   0  0  0  0  0  0  0  0  0  0  0  0
    8.5050   -0.7770   22.6260 C   0  0  2  0  0  0  0  0  0  0  0  0
    8.0240    0.0590   21.4120 C   0  0  0  0  0  0  0  0  0  0  0  0
    8.4130    1.1720   21.0920 O   0  0  0  0  0  0  0  0  0  0  0  0
    6.9110   -0.5280   20.8750 N   0  0  0  0  0  0  0  0  0  0  0  0
    6.1870    0.1000   19.8270 C   0  0  0  0  0  0  0  0  0  0  0  0
    6.5660   -0.1500   18.5340 C   0  0  0  0  0  0  0  0  0  0  0  0
    5.8990    0.3070   17.4510 N   0  0  0  0  0  0  0  0  0  0  0  0
    4.8310    1.0310   17.6640 C   0  0  0  0  0  0  0  0  0  0  0  0
    4.3600    1.4120   18.9500 C   0  0  0  0  0  0  0  0  0  0  0  0
    3.2200    2.2440   19.1070 C   0  0  0  0  0  0  0  0  0  0  0  0
    2.8000    2.6150   20.3520 C   0  0  0  0  0  0  0  0  0  0  0  0
    3.5030    2.1690   21.4940 C   0  0  0  0  0  0  0  0  0  0  0  0
    4.6100    1.3620   21.3670 C   0  0  0  0  0  0  0  0  0  0  0  0
    5.0670    0.9500   20.0840 C   0  0  0  0  0  0  0  0  0  0  0  0
    5.1440    1.0530   22.2620 H   0  0  0  0  0  0  0  0  0  0  0  0
    3.1770    2.4890   22.4790 H   0  0  0  0  0  0  0  0  0  0  0  0
    1.9390    3.2670   20.4710 H   0  0  0  0  0  0  0  0  0  0  0  0
    2.7110    2.5850   18.2100 H   0  0  0  0  0  0  0  0  0  0  0  0
    4.2810    1.3640   16.7860 H   0  0  0  0  0  0  0  0  0  0  0  0
    7.4390   -0.7680   18.3370 H   0  0  0  0  0  0  0  0  0  0  0  0
    6.3720   -1.5960   21.6940 C   0  0  0  0  0  0  0  0  0  0  0  0
    7.5900   -2.0320   22.5140 C   0  0  2  0  0  0  0  0  0  0  0  0
    7.2300   -2.7160   23.8240 C   0  0  0  0  0  0  0  0  0  0  0  0
    8.4260   -3.1630   24.5130 N   0  0  0  0  0  0  0  0  0  0  0  0
    8.3660   -3.6470   25.7680 C   0  0  0  0  0  0  0  0  0  0  0  0
    7.1470   -3.7280   26.3330 N   0  0  0  0  0  0  0  0  0  0  0  0
    7.1570   -4.2170   27.5600 C   0  0  0  0  0  0  0  0  0  0  0  0
    8.2140   -4.6450   28.2450 N   0  0  0  0  0  0  0  0  0  0  0  0
    9.3600   -4.5180   27.5680 C   0  0  0  0  0  0  0  0  0  0  0  0
    9.5190   -4.0270   26.3500 N   0  0  0  0  0  0  0  0  0  0  0  0
   10.2660   -4.8510   28.0750 H   0  0  0  0  0  0  0  0  0  0  0  0
    6.1940   -4.2810   28.0680 H   0  0  0  0  0  0  0  0  0  0  0  0
    9.3430   -2.8790   24.2030 H   0  0  0  0  0  0  0  0  0  0  0  0
    6.6500   -2.0490   24.4720 H   0  0  0  0  0  0  0  0  0  0  0  0
    6.5720   -3.5750   23.6650 H   0  0  0  0  0  0  0  0  0  0  0  0
    8.1450   -2.7570   21.9180 H   0  0  0  0  0  0  0  0  0  0  0  0
    5.9760   -2.3880   21.0510 H   0  0  0  0  0  0  0  0  0  0  0  0
    5.5640   -1.2290   22.3490 H   0  0  0  0  0  0  0  0  0  0  0  0
    9.9890   -1.1340   22.6460 C   0  0  0  0  0  0  0  0  0  0  0  0
   10.5170   -2.0980   21.7610 C   0  0  0  0  0  0  0  0  0  0  0  0
   11.8830   -2.3150   21.6790 C   0  0  0  0  0  0  0  0  0  0  0  0
   12.5060   -3.4110   20.4730 Cl  0  0  0  0  0  0  0  0  0  0  0  0
   12.7830   -1.6530   22.5140 C   0  0  0  0  0  0  0  0  0  0  0  0
   12.2680   -0.7740   23.4480 C   0  0  0  0  0  0  0  0  0  0  0  0
   10.8990   -0.4920   23.5040 C   0  0  0  0  0  0  0  0  0  0  0  0
   10.4590    0.6700   24.3600 C   0  0  0  0  0  0  0  0  0  0  0  0
   11.2130    1.2300   25.1410 O   0  0  0  0  0  0  0  0  0  0  0  0
   12.9290   -0.2480   24.1280 H   0  0  0  0  0  0  0  0  0  0  0  0
   13.8520   -1.8120   22.4030 H   0  0  0  0  0  0  0  0  0  0  0  0
    9.8790   -2.6530   21.0840 H   0  0  0  0  0  0  0  0  0  0  0  0
    7.1990    0.5830   23.7020 H   0  0  0  0  0  0  0  0  0  0  0  0
    8.0670   -0.5380   24.7650 H   0  0  0  0  0  0  0  0  0  0  0  0
    7.8070    2.4760   24.8810 H   0  0  0  0  0  0  0  0  0  0  0  0
    9.5190    2.8320   25.0910 H   0  0  0  0  0  0  0  0  0  0  0  0
    9.6820    3.2330   22.5880 H   0  0  0  0  0  0  0  0  0  0  0  0
    8.8490    4.4610   23.5520 H   0  0  0  0  0  0  0  0  0  0  0  0
    7.8980    3.7930   21.3600 H   0  0  0  0  0  0  0  0  0  0  0  0
    7.4570    2.3800   22.0000 H   0  0  0  0  0  0  0  0  0  0  0  0
    6.6020    5.1190   22.8830 H   0  0  0  0  0  0  0  0  0  0  0  0
    5.5910    3.9230   22.0550 H   0  0  0  0  0  0  0  0  0  0  0  0
    6.0980    3.6500   23.7240 H   0  0  0  0  0  0  0  0  0  0  0  0
  1  2  1  0
  1 65  1  0
  1 66  1  0
  1 67  1  0
  2  3  1  0
  2 63  1  0
  2 64  1  0
  3  4  1  0
  3 61  1  0
  3 62  1  0
  4  5  1  0
  4 59  1  0
  4 60  1  0
  5  6  1  0
  5 52  1  0
  7  6  1  1
  6 57  1  0
  6 58  1  0
  7  8  1  0
  7 28  1  0
  7 45  1  0
  8  9  2  0
  8 10  1  0
 10 11  1  0
 10 27  1  0
 11 12  2  0
 11 20  1  0
 12 13  1  0
 12 26  1  0
 13 14  2  0
 14 15  1  0
 14 25  1  0
 15 16  1  0
 15 20  2  0
 16 17  2  0
 16 24  1  0
 17 18  1  0
 17 23  1  0
 18 19  2  0
 18 22  1  0
 19 20  1  0
 19 21  1  0
 27 28  1  0
 27 43  1  0
 27 44  1  0
 28 29  1  0
 28 42  1  6
 29 30  1  0
 29 40  1  0
 29 41  1  0
 30 31  1  0
 30 39  1  0
 31 32  2  0
 31 36  1  0
 32 33  1  0
 33 34  2  0
 33 38  1  0
 34 35  1  0
 35 36  2  0
 35 37  1  0
 45 46  1  0
 45 51  2  0
 46 47  2  0
 46 56  1  0
 47 48  1  0
 47 49  1  0
 49 50  2  0
 49 55  1  0
 50 51  1  0
 50 54  1  0
 51 52  1  0
 52 53  2  0
M  CHG  1   2   1
M  END
>  <MODEL>  (30) 
       1

>  <ApoScore>  (30) 
28.5541

$$$$
mol30_score_25.4531
     RDKit          3D

 66 71  0  0  1  0  0  0  0  0999 V2000
    6.5910    4.3810   21.3750 C   0  0  0  0  0  0  0  0  0  0  0  0
    7.5790    3.9640   22.3600 N   0  0  0  0  0  0  0  0  0  0  0  0
    7.1080    3.3080   23.4670 C   0  0  0  0  0  0  0  0  0  0  0  0
    5.9150    3.1060   23.6470 O   0  0  0  0  0  0  0  0  0  0  0  0
    8.1480    2.8110   24.4670 C   0  0  0  0  0  0  0  0  0  0  0  0
    8.8140    1.6270   23.9580 N   0  0  0  0  0  0  0  0  0  0  0  0
    8.0580    0.3850   23.8330 C   0  0  0  0  0  0  0  0  0  0  0  0
    8.4760   -0.4160   22.5680 C   0  0  2  0  0  0  0  0  0  0  0  0
    7.9780    0.2720   21.2750 C   0  0  0  0  0  0  0  0  0  0  0  0
    8.4570    1.2420   20.7210 O   0  0  0  0  0  0  0  0  0  0  0  0
    6.8840   -0.4210   20.8120 N   0  0  0  0  0  0  0  0  0  0  0  0
    6.1190    0.0910   19.7410 C   0  0  0  0  0  0  0  0  0  0  0  0
    6.4700   -0.2030   18.4490 C   0  0  0  0  0  0  0  0  0  0  0  0
    5.7920    0.2320   17.3600 N   0  0  0  0  0  0  0  0  0  0  0  0
    4.7520    1.0020   17.5770 C   0  0  0  0  0  0  0  0  0  0  0  0
    4.2990    1.4050   18.8660 C   0  0  0  0  0  0  0  0  0  0  0  0
    3.1860    2.2670   19.0470 C   0  0  0  0  0  0  0  0  0  0  0  0
    2.7890    2.6360   20.3030 C   0  0  0  0  0  0  0  0  0  0  0  0
    3.4900    2.1740   21.4400 C   0  0  0  0  0  0  0  0  0  0  0  0
    4.5730    1.3410   21.2940 C   0  0  0  0  0  0  0  0  0  0  0  0
    4.9990    0.9340   19.9980 C   0  0  0  0  0  0  0  0  0  0  0  0
    5.1310    1.0300   22.1740 H   0  0  0  0  0  0  0  0  0  0  0  0
    3.1880    2.4990   22.4310 H   0  0  0  0  0  0  0  0  0  0  0  0
    1.9340    3.2940   20.4310 H   0  0  0  0  0  0  0  0  0  0  0  0
    2.6710    2.6290   18.1620 H   0  0  0  0  0  0  0  0  0  0  0  0
    4.2110    1.3580   16.7010 H   0  0  0  0  0  0  0  0  0  0  0  0
    7.3410   -0.8280   18.2680 H   0  0  0  0  0  0  0  0  0  0  0  0
    6.4970   -1.5530   21.6280 C   0  0  0  0  0  0  0  0  0  0  0  0
    7.7540   -1.7990   22.4770 C   0  0  2  0  0  0  0  0  0  0  0  0
    7.4730   -2.5350   23.7980 C   0  0  0  0  0  0  0  0  0  0  0  0
    6.9440   -3.9380   23.5830 C   0  0  0  0  0  0  0  0  0  0  0  0
    5.5690   -4.1910   23.5420 C   0  0  0  0  0  0  0  0  0  0  0  0
    5.0820   -5.4800   23.3310 C   0  0  0  0  0  0  0  0  0  0  0  0
    5.9680   -6.5390   23.1470 C   0  0  0  0  0  0  0  0  0  0  0  0
    7.3400   -6.3020   23.1880 C   0  0  0  0  0  0  0  0  0  0  0  0
    7.8210   -5.0120   23.4000 C   0  0  0  0  0  0  0  0  0  0  0  0
    8.8990   -4.8460   23.4370 H   0  0  0  0  0  0  0  0  0  0  0  0
    8.0390   -7.1270   23.0670 H   0  0  0  0  0  0  0  0  0  0  0  0
    5.5900   -7.5470   22.9820 H   0  0  0  0  0  0  0  0  0  0  0  0
    4.0090   -5.6600   23.3200 H   0  0  0  0  0  0  0  0  0  0  0  0
    4.8650   -3.3700   23.6880 H   0  0  0  0  0  0  0  0  0  0  0  0
    6.7470   -1.9620   24.3950 H   0  0  0  0  0  0  0  0  0  0  0  0
    8.4090   -2.5810   24.3730 H   0  0  0  0  0  0  0  0  0  0  0  0
    8.4020   -2.4560   21.8860 H   0  0  0  0  0  0  0  0  0  0  0  0
    5.6110   -1.3260   22.2480 H   0  0  0  0  0  0  0  0  0  0  0  0
    6.2480   -2.4230   21.0080 H   0  0  0  0  0  0  0  0  0  0  0  0
    9.9870   -0.4770   22.5050 C   0  0  0  0  0  0  0  0  0  0  0  0
   10.6060   -1.3650   21.6120 C   0  0  0  0  0  0  0  0  0  0  0  0
   11.9690   -1.2910   21.3980 C   0  0  0  0  0  0  0  0  0  0  0  0
   12.6750   -2.2720   20.1420 Cl  0  0  0  0  0  0  0  0  0  0  0  0
   12.7730   -0.4120   22.1300 C   0  0  0  0  0  0  0  0  0  0  0  0
   12.1730    0.4350   23.0390 C   0  0  0  0  0  0  0  0  0  0  0  0
   10.7840    0.4670   23.1640 C   0  0  0  0  0  0  0  0  0  0  0  0
   10.1820    1.6200   23.9090 C   0  0  0  0  0  0  0  0  0  0  0  0
   10.8710    2.5150   24.3870 O   0  0  0  0  0  0  0  0  0  0  0  0
   12.7530    1.1310   23.6340 H   0  0  0  0  0  0  0  0  0  0  0  0
   13.8410   -0.3690   21.9400 H   0  0  0  0  0  0  0  0  0  0  0  0
   10.0450   -2.0980   21.0390 H   0  0  0  0  0  0  0  0  0  0  0  0
    8.2320   -0.2430   24.7210 H   0  0  0  0  0  0  0  0  0  0  0  0
    6.9900    0.6310   23.7920 H   0  0  0  0  0  0  0  0  0  0  0  0
    8.9270    3.5480   24.6740 H   0  0  0  0  0  0  0  0  0  0  0  0
    7.6430    2.5960   25.4110 H   0  0  0  0  0  0  0  0  0  0  0  0
    8.4900    3.7260   21.9850 H   0  0  0  0  0  0  0  0  0  0  0  0
    5.7590    4.8580   21.8980 H   0  0  0  0  0  0  0  0  0  0  0  0
    6.1890    3.5220   20.8190 H   0  0  0  0  0  0  0  0  0  0  0  0
    7.0190    5.1070   20.6770 H   0  0  0  0  0  0  0  0  0  0  0  0
  1  2  1  0
  1 64  1  0
  1 65  1  0
  1 66  1  0
  2  3  1  0
  2 63  1  0
  3  4  2  0
  3  5  1  0
  5  6  1  0
  5 61  1  0
  5 62  1  0
  6  7  1  0
  6 54  1  0
  8  7  1  1
  7 59  1  0
  7 60  1  0
  8  9  1  0
  8 29  1  0
  8 47  1  0
  9 10  2  0
  9 11  1  0
 11 12  1  0
 11 28  1  0
 12 13  2  0
 12 21  1  0
 13 14  1  0
 13 27  1  0
 14 15  2  0
 15 16  1  0
 15 26  1  0
 16 17  1  0
 16 21  2  0
 17 18  2  0
 17 25  1  0
 18 19  1  0
 18 24  1  0
 19 20  2  0
 19 23  1  0
 20 21  1  0
 20 22  1  0
 28 29  1  0
 28 45  1  0
 28 46  1  0
 29 30  1  0
 29 44  1  6
 30 31  1  0
 30 42  1  0
 30 43  1  0
 31 32  2  0
 31 36  1  0
 32 33  1  0
 32 41  1  0
 33 34  2  0
 33 40  1  0
 34 35  1  0
 34 39  1  0
 35 36  2  0
 35 38  1  0
 36 37  1  0
 47 48  1  0
 47 53  2  0
 48 49  2  0
 48 58  1  0
 49 50  1  0
 49 51  1  0
 51 52  2  0
 51 57  1  0
 52 53  1  0
 52 56  1  0
 53 54  1  0
 54 55  2  0
M  END
>  <MODEL>  (31) 
       1

>  <ApoScore>  (31) 
25.4531

$$$$
mol31_score_28.3127
     RDKit          3D

 64 70  0  0  1  0  0  0  0  0999 V2000
    9.3350   -0.7850   25.4890 O   0  0  0  0  0  0  0  0  0  0  0  0
    9.2220   -0.7970   25.5000 C   0  0  0  0  0  0  0  0  0  0  0  0
   10.2470   -0.3170   24.5640 C   0  0  0  0  0  0  0  0  0  0  0  0
   11.5560    0.2270   24.7740 C   0  0  0  0  0  0  0  0  0  0  0  0
   12.4360    0.3610   23.7490 C   0  0  0  0  0  0  0  0  0  0  0  0
   12.0050    0.0910   22.4640 C   0  0  0  0  0  0  0  0  0  0  0  0
   13.2660    0.1440   21.3030 Cl  0  0  0  0  0  0  0  0  0  0  0  0
   10.6710   -0.1850   22.2020 C   0  0  0  0  0  0  0  0  0  0  0  0
    9.7440   -0.3260   23.2540 C   0  0  0  0  0  0  0  0  0  0  0  0
    8.2350   -0.5080   22.8660 C   0  0  1  0  0  0  0  0  0  0  0  0
    7.2810   -0.1150   24.0460 C   0  0  0  0  0  0  0  0  0  0  0  0
    7.7250   -0.8040   25.3580 N   0  0  0  0  0  0  0  0  0  0  0  0
    6.8390   -0.7570   26.6530 C   0  0  0  0  0  0  0  0  0  0  0  0
    6.8460   -2.1520   27.1520 C   0  0  0  0  0  0  0  0  0  0  0  0
    5.9040   -2.9120   27.5880 N   0  0  0  0  0  0  0  0  0  0  0  0
    6.5060   -4.1450   27.8530 N   0  0  0  0  0  0  0  0  0  0  0  0
    7.7510   -4.0070   27.5650 C   0  0  0  0  0  0  0  0  0  0  0  0
    8.0560   -2.7630   27.1160 O   0  0  0  0  0  0  0  0  0  0  0  0
    8.5420   -4.7440   27.6110 H   0  0  0  0  0  0  0  0  0  0  0  0
    5.8440   -0.3980   26.4070 H   0  0  0  0  0  0  0  0  0  0  0  0
    7.3380   -0.0880   27.3600 H   0  0  0  0  0  0  0  0  0  0  0  0
    6.2520   -0.4130   23.8400 H   0  0  0  0  0  0  0  0  0  0  0  0
    7.3340    0.9690   24.1840 H   0  0  0  0  0  0  0  0  0  0  0  0
    7.7860    0.3740   21.6660 C   0  0  0  0  0  0  0  0  0  0  0  0
    8.0230    1.5480   21.4800 O   0  0  0  0  0  0  0  0  0  0  0  0
    6.9970   -0.3910   20.8230 N   0  0  0  0  0  0  0  0  0  0  0  0
    6.1980    0.1430   19.7760 C   0  0  0  0  0  0  0  0  0  0  0  0
    6.4680   -0.2220   18.4810 C   0  0  0  0  0  0  0  0  0  0  0  0
    5.7870    0.2070   17.3910 N   0  0  0  0  0  0  0  0  0  0  0  0
    4.7730    1.0120   17.5970 C   0  0  0  0  0  0  0  0  0  0  0  0
    4.3340    1.4200   18.8880 C   0  0  0  0  0  0  0  0  0  0  0  0
    3.2020    2.2640   19.0430 C   0  0  0  0  0  0  0  0  0  0  0  0
    2.7580    2.6030   20.2910 C   0  0  0  0  0  0  0  0  0  0  0  0
    3.4280    2.1140   21.4360 C   0  0  0  0  0  0  0  0  0  0  0  0
    4.5380    1.3140   21.3100 C   0  0  0  0  0  0  0  0  0  0  0  0
    5.0390    0.9580   20.0250 C   0  0  0  0  0  0  0  0  0  0  0  0
    5.0380    0.9470   22.2010 H   0  0  0  0  0  0  0  0  0  0  0  0
    3.0630    2.3850   22.4220 H   0  0  0  0  0  0  0  0  0  0  0  0
    1.8930    3.2520   20.4090 H   0  0  0  0  0  0  0  0  0  0  0  0
    2.7050    2.6310   18.1470 H   0  0  0  0  0  0  0  0  0  0  0  0
    4.2310    1.3740   16.7210 H   0  0  0  0  0  0  0  0  0  0  0  0
    7.3010   -0.8920   18.2790 H   0  0  0  0  0  0  0  0  0  0  0  0
    6.8210   -1.7610   21.2630 C   0  0  0  0  0  0  0  0  0  0  0  0
    7.9370   -1.9440   22.2900 C   0  0  2  0  0  0  0  0  0  0  0  0
    7.6710   -3.0480   23.3230 C   0  0  0  0  0  0  0  0  0  0  0  0
    6.2940   -3.2000   23.7500 N   0  0  0  0  0  0  0  0  0  0  0  0
    5.4460   -4.1590   23.2920 C   0  0  0  0  0  0  0  0  0  0  0  0
    5.7240   -4.9110   22.1340 C   0  0  0  0  0  0  0  0  0  0  0  0
    4.7790   -5.8460   21.7730 C   0  0  0  0  0  0  0  0  0  0  0  0
    3.6380   -6.0370   22.4490 N   0  0  0  0  0  0  0  0  0  0  0  0
    3.4810   -5.2650   23.5150 C   0  0  0  0  0  0  0  0  0  0  0  0
    4.3130   -4.3380   23.9830 N   0  0  0  0  0  0  0  0  0  0  0  0
    2.5590   -5.4040   24.0800 H   0  0  0  0  0  0  0  0  0  0  0  0
    4.9290   -6.4790   20.8980 H   0  0  0  0  0  0  0  0  0  0  0  0
    6.6310   -4.7590   21.5520 H   0  0  0  0  0  0  0  0  0  0  0  0
    6.0320   -2.8380   24.6570 H   0  0  0  0  0  0  0  0  0  0  0  0
    8.2670   -2.8410   24.2130 H   0  0  0  0  0  0  0  0  0  0  0  0
    8.0190   -4.0040   22.9270 H   0  0  0  0  0  0  0  0  0  0  0  0
    8.8540   -2.2190   21.7470 H   0  0  0  0  0  0  0  0  0  0  0  0
    5.8220   -1.9060   21.6870 H   0  0  0  0  0  0  0  0  0  0  0  0
    6.9050   -2.4400   20.4150 H   0  0  0  0  0  0  0  0  0  0  0  0
   10.3550   -0.2680   21.1670 H   0  0  0  0  0  0  0  0  0  0  0  0
   13.4690    0.6280   23.9500 H   0  0  0  0  0  0  0  0  0  0  0  0
   11.9590    0.5680   25.7130 H   0  0  0  0  0  0  0  0  0  0  0  0
  1  2  2  0
  2  3  1  0
  2 12  1  0
  3  4  1  0
  3  9  2  0
  4  5  2  0
  4 64  1  0
  5  6  1  0
  5 63  1  0
  6  7  1  0
  6  8  2  0
  8  9  1  0
  8 62  1  0
 10  9  1  0
 10 11  1  1
 10 24  1  0
 10 44  1  0
 11 12  1  0
 11 22  1  0
 11 23  1  0
 12 13  1  0
 13 14  1  0
 13 20  1  0
 13 21  1  0
 14 15  2  0
 14 18  1  0
 15 16  1  0
 16 17  2  0
 17 18  1  0
 17 19  1  0
 24 25  2  0
 24 26  1  0
 26 27  1  0
 26 43  1  0
 27 28  2  0
 27 36  1  0
 28 29  1  0
 28 42  1  0
 29 30  2  0
 30 31  1  0
 30 41  1  0
 31 32  1  0
 31 36  2  0
 32 33  2  0
 32 40  1  0
 33 34  1  0
 33 39  1  0
 34 35  2  0
 34 38  1  0
 35 36  1  0
 35 37  1  0
 43 44  1  0
 43 60  1  0
 43 61  1  0
 44 45  1  0
 44 59  1  6
 45 46  1  0
 45 57  1  0
 45 58  1  0
 46 47  1  0
 46 56  1  0
 47 48  2  0
 47 52  1  0
 48 49  1  0
 48 55  1  0
 49 50  2  0
 49 54  1  0
 50 51  1  0
 51 52  2  0
 51 53  1  0
M  END
>  <MODEL>  (32) 
       1

>  <ApoScore>  (32) 
28.3127

$$$$
mol32_score_21.3661
     RDKit          3D

 72 77  0  0  1  0  0  0  0  0999 V2000
    7.6360   -2.7810   23.5400 C   0  0  0  0  0  0  0  0  0  0  0  0
    7.8490   -1.9760   22.2590 C   0  0  1  0  0  0  0  0  0  0  0  0
    6.5240   -1.5410   21.6150 C   0  0  0  0  0  0  0  0  0  0  0  0
    6.9160   -0.4050   20.8090 N   0  0  0  0  0  0  0  0  0  0  0  0
    6.1290    0.1110   19.7530 C   0  0  0  0  0  0  0  0  0  0  0  0
    6.4840   -0.1550   18.4560 C   0  0  0  0  0  0  0  0  0  0  0  0
    5.7930    0.2870   17.3820 N   0  0  0  0  0  0  0  0  0  0  0  0
    4.7390    1.0310   17.6040 C   0  0  0  0  0  0  0  0  0  0  0  0
    4.2640    1.3850   18.9010 C   0  0  0  0  0  0  0  0  0  0  0  0
    3.1430    2.2330   19.0960 C   0  0  0  0  0  0  0  0  0  0  0  0
    2.7560    2.6020   20.3550 C   0  0  0  0  0  0  0  0  0  0  0  0
    3.4470    2.1160   21.4850 C   0  0  0  0  0  0  0  0  0  0  0  0
    4.5120    1.2580   21.3240 C   0  0  0  0  0  0  0  0  0  0  0  0
    4.9680    0.8930   20.0240 C   0  0  0  0  0  0  0  0  0  0  0  0
    5.0460    0.9010   22.2000 H   0  0  0  0  0  0  0  0  0  0  0  0
    3.1460    2.4290   22.4800 H   0  0  0  0  0  0  0  0  0  0  0  0
    1.9200    3.2820   20.4910 H   0  0  0  0  0  0  0  0  0  0  0  0
    2.6200    2.5970   18.2170 H   0  0  0  0  0  0  0  0  0  0  0  0
    4.2000    1.3990   16.7310 H   0  0  0  0  0  0  0  0  0  0  0  0
    7.3640   -0.7610   18.2530 H   0  0  0  0  0  0  0  0  0  0  0  0
    8.0690    0.2010   21.2380 C   0  0  0  0  0  0  0  0  0  0  0  0
    8.5040    1.2740   20.8470 O   0  0  0  0  0  0  0  0  0  0  0  0
    8.6730   -0.6600   22.3720 C   0  0  1  0  0  0  0  0  0  0  0  0
    8.4080    0.0580   23.7120 C   0  0  0  0  0  0  0  0  0  0  0  0
    9.1450    1.3030   23.8080 N   0  0  0  0  0  0  0  0  0  0  0  0
    8.5030    2.4140   24.4920 C   0  0  0  0  0  0  0  0  0  0  0  0
    7.4080    3.0580   23.6320 C   0  0  0  0  0  0  0  0  0  0  0  0
    7.9890    3.6510   22.3780 N   0  0  1  0  0  0  0  0  0  0  0  0
    7.0490    3.7480   21.2080 C   0  0  0  0  0  0  0  0  0  0  0  0
    6.1660    4.9780   21.2220 C   0  0  0  0  0  0  0  0  0  0  0  0
    6.9390    6.1540   21.2920 O   0  0  0  0  0  0  0  0  0  0  0  0
    7.7150    6.2300   22.4930 C   0  0  0  0  0  0  0  0  0  0  0  0
    8.5550    7.4930   22.3330 C   0  0  0  0  0  0  0  0  0  0  0  0
    9.3380    7.3550   21.5810 H   0  0  0  0  0  0  0  0  0  0  0  0
    9.0310    7.7800   23.2770 H   0  0  0  0  0  0  0  0  0  0  0  0
    7.9070    8.3130   22.0070 H   0  0  0  0  0  0  0  0  0  0  0  0
    6.7920    6.3990   23.7050 C   0  0  0  0  0  0  0  0  0  0  0  0
    6.1170    5.5520   23.8480 H   0  0  0  0  0  0  0  0  0  0  0  0
    6.1710    7.2910   23.5690 H   0  0  0  0  0  0  0  0  0  0  0  0
    7.3840    6.5170   24.6200 H   0  0  0  0  0  0  0  0  0  0  0  0
    8.6510    4.9980   22.6000 C   0  0  0  0  0  0  0  0  0  0  0  0
    9.1250    5.0050   23.5860 H   0  0  0  0  0  0  0  0  0  0  0  0
    9.4430    5.1020   21.8520 H   0  0  0  0  0  0  0  0  0  0  0  0
    5.5820    5.0380   20.2950 H   0  0  0  0  0  0  0  0  0  0  0  0
    5.4480    4.9070   22.0510 H   0  0  0  0  0  0  0  0  0  0  0  0
    7.6690    3.7450   20.3150 H   0  0  0  0  0  0  0  0  0  0  0  0
    6.4520    2.8430   21.1680 H   0  0  0  0  0  0  0  0  0  0  0  0
    8.6900    2.9670   22.0400 H   0  0  0  0  0  0  0  0  0  0  0  0
    6.6500    2.3190   23.3380 H   0  0  0  0  0  0  0  0  0  0  0  0
    6.9000    3.8190   24.2230 H   0  0  0  0  0  0  0  0  0  0  0  0
    8.0770    2.0700   25.4450 H   0  0  0  0  0  0  0  0  0  0  0  0
    9.2940    3.1310   24.7220 H   0  0  0  0  0  0  0  0  0  0  0  0
   10.4830    1.3550   23.5280 C   0  0  0  0  0  0  0  0  0  0  0  0
   11.2090    2.2490   23.9430 O   0  0  0  0  0  0  0  0  0  0  0  0
   11.0080    0.2580   22.6440 C   0  0  0  0  0  0  0  0  0  0  0  0
   12.3480    0.3140   22.2630 C   0  0  0  0  0  0  0  0  0  0  0  0
   12.8930   -0.6750   21.4740 C   0  0  0  0  0  0  0  0  0  0  0  0
   12.0750   -1.7280   21.0690 C   0  0  0  0  0  0  0  0  0  0  0  0
   12.7610   -2.9650   20.0630 Cl  0  0  0  0  0  0  0  0  0  0  0  0
   10.7360   -1.7820   21.4020 C   0  0  0  0  0  0  0  0  0  0  0  0
   10.1710   -0.7700   22.1800 C   0  0  0  0  0  0  0  0  0  0  0  0
   10.1370   -2.6010   21.0210 H   0  0  0  0  0  0  0  0  0  0  0  0
   13.9320   -0.6570   21.1610 H   0  0  0  0  0  0  0  0  0  0  0  0
   12.9300    1.1780   22.5590 H   0  0  0  0  0  0  0  0  0  0  0  0
    8.6800   -0.6150   24.5360 H   0  0  0  0  0  0  0  0  0  0  0  0
    7.3410    0.2790   23.8000 H   0  0  0  0  0  0  0  0  0  0  0  0
    5.7860   -1.2730   22.3910 H   0  0  0  0  0  0  0  0  0  0  0  0
    6.0830   -2.3190   20.9860 H   0  0  0  0  0  0  0  0  0  0  0  0
    8.3500   -2.6120   21.5250 H   0  0  0  0  0  0  0  0  0  0  0  0
    7.0790   -3.6990   23.3260 H   0  0  0  0  0  0  0  0  0  0  0  0
    7.0510   -2.2080   24.2710 H   0  0  0  0  0  0  0  0  0  0  0  0
    8.5820   -3.0650   24.0140 H   0  0  0  0  0  0  0  0  0  0  0  0
  1  2  1  0
  1 70  1  0
  1 71  1  0
  1 72  1  0
  2  3  1  0
  2 23  1  0
  2 69  1  6
  3  4  1  0
  3 67  1  0
  3 68  1  0
  4  5  1  0
  4 21  1  0
  5  6  2  0
  5 14  1  0
  6  7  1  0
  6 20  1  0
  7  8  2  0
  8  9  1  0
  8 19  1  0
  9 10  1  0
  9 14  2  0
 10 11  2  0
 10 18  1  0
 11 12  1  0
 11 17  1  0
 12 13  2  0
 12 16  1  0
 13 14  1  0
 13 15  1  0
 21 22  2  0
 23 21  1  0
 23 24  1  1
 23 61  1  0
 24 25  1  0
 24 65  1  0
 24 66  1  0
 25 26  1  0
 25 53  1  0
 26 27  1  0
 26 51  1  0
 26 52  1  0
 27 28  1  0
 27 49  1  0
 27 50  1  0
 28 29  1  0
 28 41  1  0
 28 48  1  6
 29 30  1  0
 29 46  1  0
 29 47  1  0
 30 31  1  0
 30 44  1  0
 30 45  1  0
 31 32  1  0
 32 33  1  0
 32 37  1  0
 32 41  1  0
 33 34  1  0
 33 35  1  0
 33 36  1  0
 37 38  1  0
 37 39  1  0
 37 40  1  0
 41 42  1  0
 41 43  1  0
 53 54  2  0
 53 55  1  0
 55 56  2  0
 55 61  1  0
 56 57  1  0
 56 64  1  0
 57 58  2  0
 57 63  1  0
 58 59  1  0
 58 60  1  0
 60 61  2  0
 60 62  1  0
M  CHG  1  28   1
M  END
>  <MODEL>  (33) 
       1

>  <ApoScore>  (33) 
21.3661

$$$$
mol33_score_14.5767
     RDKit          3D

 44 47  0  0  1  0  0  0  0  0999 V2000
    8.5160    1.3910   20.7350 O   0  0  0  0  0  0  0  0  0  0  0  0
    7.8690    0.6920   21.5020 C   0  0  0  0  0  0  0  0  0  0  0  0
    6.9530   -0.4150   20.9260 C   0  0  0  0  0  0  0  0  0  0  0  0
    6.1110    0.0890   19.7750 C   0  0  0  0  0  0  0  0  0  0  0  0
    6.4300   -0.2000   18.4740 C   0  0  0  0  0  0  0  0  0  0  0  0
    5.7700    0.2700   17.3800 N   0  0  0  0  0  0  0  0  0  0  0  0
    4.7300    1.0340   17.5840 C   0  0  0  0  0  0  0  0  0  0  0  0
    4.2810    1.4250   18.8730 C   0  0  0  0  0  0  0  0  0  0  0  0
    3.1690    2.2860   19.0480 C   0  0  0  0  0  0  0  0  0  0  0  0
    2.7630    2.6540   20.3000 C   0  0  0  0  0  0  0  0  0  0  0  0
    3.4650    2.1690   21.4300 C   0  0  0  0  0  0  0  0  0  0  0  0
    4.5440    1.3350   21.2910 C   0  0  0  0  0  0  0  0  0  0  0  0
    4.9880    0.9400   20.0030 C   0  0  0  0  0  0  0  0  0  0  0  0
    5.0710    0.9830   22.1770 H   0  0  0  0  0  0  0  0  0  0  0  0
    3.1340    2.4710   22.4190 H   0  0  0  0  0  0  0  0  0  0  0  0
    1.9120    3.3160   20.4320 H   0  0  0  0  0  0  0  0  0  0  0  0
    2.6520    2.6550   18.1630 H   0  0  0  0  0  0  0  0  0  0  0  0
    4.1980    1.3970   16.7000 H   0  0  0  0  0  0  0  0  0  0  0  0
    7.2730   -0.8530   18.2440 H   0  0  0  0  0  0  0  0  0  0  0  0
    7.6150   -1.1990   20.5370 H   0  0  0  0  0  0  0  0  0  0  0  0
    6.3230   -0.8910   21.6860 H   0  0  0  0  0  0  0  0  0  0  0  0
    7.9400    0.8590   22.8610 N   0  0  0  0  0  0  0  0  0  0  0  0
    7.4850   -0.0760   23.8820 C   0  0  0  0  0  0  0  0  0  0  0  0
    7.8300    0.5790   25.2260 C   0  0  0  0  0  0  0  0  0  0  0  0
    8.7610    1.7530   24.9080 C   0  0  0  0  0  0  0  0  0  0  0  0
    8.5830    2.0520   23.4130 C   0  0  2  0  0  0  0  0  0  0  0  0
    7.7940    3.3170   23.1440 C   0  0  0  0  0  0  0  0  0  0  0  0
    8.3950    4.4130   22.5260 C   0  0  0  0  0  0  0  0  0  0  0  0
    7.6640    5.5680   22.2700 C   0  0  0  0  0  0  0  0  0  0  0  0
    6.3280    5.6580   22.6340 C   0  0  0  0  0  0  0  0  0  0  0  0
    5.7650    4.5620   23.2650 C   0  0  0  0  0  0  0  0  0  0  0  0
    4.4670    4.6180   23.6160 F   0  0  0  0  0  0  0  0  0  0  0  0
    6.4640    3.4000   23.5350 C   0  0  0  0  0  0  0  0  0  0  0  0
    5.9550    2.5760   24.0300 H   0  0  0  0  0  0  0  0  0  0  0  0
    5.7350    6.5450   22.4320 H   0  0  0  0  0  0  0  0  0  0  0  0
    8.1380    6.4020   21.7670 H   0  0  0  0  0  0  0  0  0  0  0  0
    9.4390    4.3570   22.2280 H   0  0  0  0  0  0  0  0  0  0  0  0
    9.5530    2.1840   22.9470 H   0  0  0  0  0  0  0  0  0  0  0  0
    8.5340    2.6290   25.5190 H   0  0  0  0  0  0  0  0  0  0  0  0
    9.8010    1.5010   25.1340 H   0  0  0  0  0  0  0  0  0  0  0  0
    8.3010   -0.1290   25.9060 H   0  0  0  0  0  0  0  0  0  0  0  0
    6.9280    0.9280   25.7330 H   0  0  0  0  0  0  0  0  0  0  0  0
    7.9980   -1.0330   23.7590 H   0  0  0  0  0  0  0  0  0  0  0  0
    6.4090   -0.2690   23.8100 H   0  0  0  0  0  0  0  0  0  0  0  0
  1  2  2  0
  2  3  1  0
  2 22  1  0
  3  4  1  0
  3 20  1  0
  3 21  1  0
  4  5  2  0
  4 13  1  0
  5  6  1  0
  5 19  1  0
  6  7  2  0
  7  8  1  0
  7 18  1  0
  8  9  1  0
  8 13  2  0
  9 10  2  0
  9 17  1  0
 10 11  1  0
 10 16  1  0
 11 12  2  0
 11 15  1  0
 12 13  1  0
 12 14  1  0
 22 23  1  0
 22 26  1  0
 23 24  1  0
 23 43  1  0
 23 44  1  0
 24 25  1  0
 24 41  1  0
 24 42  1  0
 25 26  1  0
 25 39  1  0
 25 40  1  0
 26 27  1  0
 26 38  1  6
 27 28  2  0
 27 33  1  0
 28 29  1  0
 28 37  1  0
 29 30  2  0
 29 36  1  0
 30 31  1  0
 30 35  1  0
 31 32  1  0
 31 33  2  0
 33 34  1  0
M  END
>  <MODEL>  (34) 
       1

>  <ApoScore>  (34) 
14.5767

$$$$
mol34_score_25.4033
     RDKit          3D

 58 63  0  0  1  0  0  0  0  0999 V2000
    7.7180   -3.0070   23.3430 C   0  0  0  0  0  0  0  0  0  0  0  0
    8.0000   -1.9330   22.2990 C   0  0  1  0  0  0  0  0  0  0  0  0
    6.9000   -1.8040   21.2420 C   0  0  0  0  0  0  0  0  0  0  0  0
    6.9230   -0.4100   20.8390 N   0  0  0  0  0  0  0  0  0  0  0  0
    6.1360    0.1070   19.7710 C   0  0  0  0  0  0  0  0  0  0  0  0
    6.4300   -0.2210   18.4710 C   0  0  0  0  0  0  0  0  0  0  0  0
    5.7600    0.2330   17.3790 N   0  0  0  0  0  0  0  0  0  0  0  0
    4.7370    1.0310   17.5790 C   0  0  0  0  0  0  0  0  0  0  0  0
    4.2890    1.4220   18.8730 C   0  0  0  0  0  0  0  0  0  0  0  0
    3.1620    2.2730   19.0500 C   0  0  0  0  0  0  0  0  0  0  0  0
    2.7450    2.6120   20.3090 C   0  0  0  0  0  0  0  0  0  0  0  0
    3.4240    2.1140   21.4420 C   0  0  0  0  0  0  0  0  0  0  0  0
    4.5120    1.2920   21.2950 C   0  0  0  0  0  0  0  0  0  0  0  0
    4.9900    0.9390   20.0050 C   0  0  0  0  0  0  0  0  0  0  0  0
    5.0260    0.9060   22.1680 H   0  0  0  0  0  0  0  0  0  0  0  0
    3.0840    2.3820   22.4360 H   0  0  0  0  0  0  0  0  0  0  0  0
    1.8880    3.2620   20.4500 H   0  0  0  0  0  0  0  0  0  0  0  0
    2.6390    2.6490   18.1730 H   0  0  0  0  0  0  0  0  0  0  0  0
    4.1980    1.4000   16.7010 H   0  0  0  0  0  0  0  0  0  0  0  0
    7.2820   -0.8660   18.2600 H   0  0  0  0  0  0  0  0  0  0  0  0
    7.6480    0.3880   21.6960 C   0  0  0  0  0  0  0  0  0  0  0  0
    7.7630    1.5950   21.6020 O   0  0  0  0  0  0  0  0  0  0  0  0
    8.2150   -0.4750   22.8180 C   0  0  1  0  0  0  0  0  0  0  0  0
    7.3490   -0.0680   24.0330 C   0  0  0  0  0  0  0  0  0  0  0  0
    7.9800   -0.5920   25.3470 N   0  0  0  0  0  0  0  0  0  0  0  0
    7.1300   -0.9900   26.5380 C   0  0  0  0  0  0  0  0  0  0  0  0
    7.0550   -2.4730   26.7620 C   0  0  0  0  0  0  0  0  0  0  0  0
    5.9670   -3.3250   26.5740 C   0  0  0  0  0  0  0  0  0  0  0  0
    6.3510   -4.5750   26.8330 N   0  0  0  0  0  0  0  0  0  0  0  0
    7.6300   -4.4430   27.1460 N   0  0  0  0  0  0  0  0  0  0  0  0
    8.4330   -5.5660   27.5930 C   0  0  0  0  0  0  0  0  0  0  0  0
    8.0810   -6.4740   27.1150 H   0  0  0  0  0  0  0  0  0  0  0  0
    9.4730   -5.4070   27.3190 H   0  0  0  0  0  0  0  0  0  0  0  0
    8.3680   -5.7000   28.6720 H   0  0  0  0  0  0  0  0  0  0  0  0
    8.1090   -3.2050   27.1120 N   0  0  0  0  0  0  0  0  0  0  0  0
    4.9770   -3.0470   26.2410 H   0  0  0  0  0  0  0  0  0  0  0  0
    7.4730   -0.4720   27.4450 H   0  0  0  0  0  0  0  0  0  0  0  0
    6.1020   -0.6150   26.3350 H   0  0  0  0  0  0  0  0  0  0  0  0
    9.4660   -0.7050   25.5910 C   0  0  0  0  0  0  0  0  0  0  0  0
    9.4660   -0.7050   25.5910 O   0  0  0  0  0  0  0  0  0  0  0  0
   10.1890   -0.2410   24.3730 C   0  0  0  0  0  0  0  0  0  0  0  0
   11.5800   -0.0020   24.4940 C   0  0  0  0  0  0  0  0  0  0  0  0
   12.4460    0.1800   23.4570 C   0  0  0  0  0  0  0  0  0  0  0  0
   11.9200    0.2460   22.1780 C   0  0  0  0  0  0  0  0  0  0  0  0
   12.8050    0.5200   21.2140 F   0  0  0  0  0  0  0  0  0  0  0  0
   10.5640    0.0610   21.9770 C   0  0  0  0  0  0  0  0  0  0  0  0
    9.6960   -0.2020   23.0630 C   0  0  0  0  0  0  0  0  0  0  0  0
   10.1660    0.1020   20.9730 H   0  0  0  0  0  0  0  0  0  0  0  0
   13.5130    0.3470   23.6140 H   0  0  0  0  0  0  0  0  0  0  0  0
   11.9530    0.2010   25.4610 H   0  0  0  0  0  0  0  0  0  0  0  0
    6.3580   -0.5010   23.9990 H   0  0  0  0  0  0  0  0  0  0  0  0
    7.2950    1.0160   24.1750 H   0  0  0  0  0  0  0  0  0  0  0  0
    7.0970   -2.4430   20.3890 H   0  0  0  0  0  0  0  0  0  0  0  0
    5.9200   -2.0920   21.6440 H   0  0  0  0  0  0  0  0  0  0  0  0
    8.9330   -2.2060   21.7850 H   0  0  0  0  0  0  0  0  0  0  0  0
    7.6650   -3.9870   22.8610 H   0  0  0  0  0  0  0  0  0  0  0  0
    6.7660   -2.8260   23.8500 H   0  0  0  0  0  0  0  0  0  0  0  0
    8.5020   -3.0280   24.1120 H   0  0  0  0  0  0  0  0  0  0  0  0
  1  2  1  0
  1 56  1  0
  1 57  1  0
  1 58  1  0
  2  3  1  0
  2 23  1  0
  2 55  1  6
  3  4  1  0
  3 53  1  0
  3 54  1  0
  4  5  1  0
  4 21  1  0
  5  6  2  0
  5 14  1  0
  6  7  1  0
  6 20  1  0
  7  8  2  0
  8  9  1  0
  8 19  1  0
  9 10  1  0
  9 14  2  0
 10 11  2  0
 10 18  1  0
 11 12  1  0
 11 17  1  0
 12 13  2  0
 12 16  1  0
 13 14  1  0
 13 15  1  0
 21 22  2  0
 23 21  1  0
 23 24  1  1
 23 47  1  0
 24 25  1  0
 24 51  1  0
 24 52  1  0
 25 26  1  0
 25 39  1  0
 26 27  1  0
 26 37  1  0
 26 38  1  0
 27 28  1  0
 27 35  2  0
 28 29  2  0
 28 36  1  0
 29 30  1  0
 30 31  1  0
 30 35  1  0
 31 32  1  0
 31 33  1  0
 31 34  1  0
 39 40  2  0
 39 41  1  0
 41 42  2  0
 41 47  1  0
 42 43  1  0
 42 50  1  0
 43 44  2  0
 43 49  1  0
 44 45  1  0
 44 46  1  0
 46 47  2  0
 46 48  1  0
M  END
>  <MODEL>  (35) 
       1

>  <ApoScore>  (35) 
25.4033

$$$$
mol35_score_23.4581
     RDKit          3D

 51 54  0  0  0  0  0  0  0  0999 V2000
   13.4860    0.4120   22.5290 N   0  0  0  0  0  0  0  0  0  0  0  0
   13.0310   -0.4980   23.0780 C   0  0  0  0  0  0  0  0  0  0  0  0
   12.4620   -1.6730   23.7650 C   0  0  0  0  0  0  0  0  0  0  0  0
   11.0510   -1.9730   23.2970 C   0  0  0  0  0  0  0  0  0  0  0  0
    9.9770   -1.2970   23.8770 C   0  0  0  0  0  0  0  0  0  0  0  0
    8.6800   -1.5160   23.4260 C   0  0  0  0  0  0  0  0  0  0  0  0
    8.4490   -2.4130   22.3820 C   0  0  0  0  0  0  0  0  0  0  0  0
    7.1120   -2.7220   21.9690 N   0  0  0  0  0  0  0  0  0  0  0  0
    6.5700   -4.0440   22.2810 C   0  0  0  0  0  0  0  0  0  0  0  0
    6.0500   -4.1360   23.7030 C   0  0  0  0  0  0  0  0  0  0  0  0
    4.7020   -3.9060   23.9860 C   0  0  0  0  0  0  0  0  0  0  0  0
    4.2520   -3.9390   25.3020 C   0  0  0  0  0  0  0  0  0  0  0  0
    5.1370   -4.1940   26.3450 C   0  0  0  0  0  0  0  0  0  0  0  0
    6.4770   -4.4160   26.0540 C   0  0  0  0  0  0  0  0  0  0  0  0
    7.6000   -4.7200   27.3520 Cl  0  0  0  0  0  0  0  0  0  0  0  0
    6.9400   -4.3900   24.7460 C   0  0  0  0  0  0  0  0  0  0  0  0
    7.9950   -4.5680   24.5510 H   0  0  0  0  0  0  0  0  0  0  0  0
    4.8120   -4.1870   27.3810 H   0  0  0  0  0  0  0  0  0  0  0  0
    3.2010   -3.7630   25.5220 H   0  0  0  0  0  0  0  0  0  0  0  0
    4.0050   -3.6990   23.1760 H   0  0  0  0  0  0  0  0  0  0  0  0
    5.7680   -4.2050   21.5570 H   0  0  0  0  0  0  0  0  0  0  0  0
    7.3600   -4.7830   22.1030 H   0  0  0  0  0  0  0  0  0  0  0  0
    6.2370   -1.8010   21.4280 C   0  0  0  0  0  0  0  0  0  0  0  0
    5.0430   -2.0130   21.3250 O   0  0  0  0  0  0  0  0  0  0  0  0
    6.8880   -0.5300   20.8850 C   0  0  0  0  0  0  0  0  0  0  0  0
    6.1120    0.0810   19.7590 C   0  0  0  0  0  0  0  0  0  0  0  0
    6.4330   -0.2170   18.4590 C   0  0  0  0  0  0  0  0  0  0  0  0
    5.7680    0.2400   17.3680 N   0  0  0  0  0  0  0  0  0  0  0  0
    4.7440    1.0260   17.5820 C   0  0  0  0  0  0  0  0  0  0  0  0
    4.2920    1.4080   18.8710 C   0  0  0  0  0  0  0  0  0  0  0  0
    3.1800    2.2680   19.0440 C   0  0  0  0  0  0  0  0  0  0  0  0
    2.7630    2.6210   20.2990 C   0  0  0  0  0  0  0  0  0  0  0  0
    3.4440    2.1280   21.4360 C   0  0  0  0  0  0  0  0  0  0  0  0
    4.5230    1.2890   21.2930 C   0  0  0  0  0  0  0  0  0  0  0  0
    4.9840    0.9170   20.0010 C   0  0  0  0  0  0  0  0  0  0  0  0
    5.0210    0.8990   22.1760 H   0  0  0  0  0  0  0  0  0  0  0  0
    3.1090    2.4200   22.4290 H   0  0  0  0  0  0  0  0  0  0  0  0
    1.9080    3.2820   20.4310 H   0  0  0  0  0  0  0  0  0  0  0  0
    2.6760    2.6410   18.1550 H   0  0  0  0  0  0  0  0  0  0  0  0
    4.2030    1.3990   16.7110 H   0  0  0  0  0  0  0  0  0  0  0  0
    7.2820   -0.8680   18.2380 H   0  0  0  0  0  0  0  0  0  0  0  0
    7.0250    0.1640   21.7240 H   0  0  0  0  0  0  0  0  0  0  0  0
    7.8960   -0.8090   20.5570 H   0  0  0  0  0  0  0  0  0  0  0  0
    9.5260   -3.0460   21.7680 C   0  0  0  0  0  0  0  0  0  0  0  0
   10.8180   -2.8460   22.2360 C   0  0  0  0  0  0  0  0  0  0  0  0
   11.6390   -3.4120   21.7940 H   0  0  0  0  0  0  0  0  0  0  0  0
    9.3470   -3.6920   20.9150 H   0  0  0  0  0  0  0  0  0  0  0  0
    7.8340   -1.0090   23.8870 H   0  0  0  0  0  0  0  0  0  0  0  0
   10.1620   -0.5840   24.6820 H   0  0  0  0  0  0  0  0  0  0  0  0
   13.1340   -2.5190   23.5860 H   0  0  0  0  0  0  0  0  0  0  0  0
   12.4770   -1.4720   24.8420 H   0  0  0  0  0  0  0  0  0  0  0  0
  1  2  3  0
  2  3  1  0
  3  4  1  0
  3 50  1  0
  3 51  1  0
  4  5  2  0
  4 45  1  0
  5  6  1  0
  5 49  1  0
  6  7  2  0
  6 48  1  0
  7  8  1  0
  7 44  1  0
  8  9  1  0
  8 23  1  0
  9 10  1  0
  9 21  1  0
  9 22  1  0
 10 11  2  0
 10 16  1  0
 11 12  1  0
 11 20  1  0
 12 13  2  0
 12 19  1  0
 13 14  1  0
 13 18  1  0
 14 15  1  0
 14 16  2  0
 16 17  1  0
 23 24  2  0
 23 25  1  0
 25 26  1  0
 25 42  1  0
 25 43  1  0
 26 27  2  0
 26 35  1  0
 27 28  1  0
 27 41  1  0
 28 29  2  0
 29 30  1  0
 29 40  1  0
 30 31  1  0
 30 35  2  0
 31 32  2  0
 31 39  1  0
 32 33  1  0
 32 38  1  0
 33 34  2  0
 33 37  1  0
 34 35  1  0
 34 36  1  0
 44 45  2  0
 44 47  1  0
 45 46  1  0
M  END
>  <MODEL>  (36) 
       1

>  <ApoScore>  (36) 
23.4581

$$$$
mol36_score_22.7146
     RDKit          3D

 59 64  0  0  1  0  0  0  0  0999 V2000
    7.6170   -2.9250   23.5300 C   0  0  0  0  0  0  0  0  0  0  0  0
    7.8830   -1.9320   22.4010 C   0  0  1  0  0  0  0  0  0  0  0  0
    6.7170   -1.7050   21.4250 C   0  0  0  0  0  0  0  0  0  0  0  0
    6.9860   -0.3770   20.9120 N   0  0  0  0  0  0  0  0  0  0  0  0
    6.2380    0.1770   19.8480 C   0  0  0  0  0  0  0  0  0  0  0  0
    6.5790   -0.1390   18.5600 C   0  0  0  0  0  0  0  0  0  0  0  0
    5.9100    0.2930   17.4670 N   0  0  0  0  0  0  0  0  0  0  0  0
    4.8510    1.0400   17.6560 C   0  0  0  0  0  0  0  0  0  0  0  0
    4.3810    1.4380   18.9380 C   0  0  0  0  0  0  0  0  0  0  0  0
    3.2310    2.2550   19.0930 C   0  0  0  0  0  0  0  0  0  0  0  0
    2.7800    2.5910   20.3390 C   0  0  0  0  0  0  0  0  0  0  0  0
    3.4570    2.1240   21.4890 C   0  0  0  0  0  0  0  0  0  0  0  0
    4.5800    1.3430   21.3640 C   0  0  0  0  0  0  0  0  0  0  0  0
    5.0800    0.9890   20.0800 C   0  0  0  0  0  0  0  0  0  0  0  0
    5.0820    0.9760   22.2550 H   0  0  0  0  0  0  0  0  0  0  0  0
    3.0850    2.3850   22.4750 H   0  0  0  0  0  0  0  0  0  0  0  0
    1.9010    3.2190   20.4540 H   0  0  0  0  0  0  0  0  0  0  0  0
    2.7280    2.6060   18.1970 H   0  0  0  0  0  0  0  0  0  0  0  0
    4.2950    1.3630   16.7730 H   0  0  0  0  0  0  0  0  0  0  0  0
    7.4430   -0.7760   18.3700 H   0  0  0  0  0  0  0  0  0  0  0  0
    7.9720    0.3180   21.5880 C   0  0  0  0  0  0  0  0  0  0  0  0
    8.4100    1.3950   21.2490 O   0  0  0  0  0  0  0  0  0  0  0  0
    8.3240   -0.5170   22.8510 C   0  0  1  0  0  0  0  0  0  0  0  0
    7.4620    0.0230   24.0230 C   0  0  0  0  0  0  0  0  0  0  0  0
    7.8110    1.3970   24.3360 N   0  0  0  0  0  0  0  0  0  0  0  0
    6.8070    2.3540   24.7970 C   0  0  0  0  0  0  0  0  0  0  0  0
    6.3960    2.2010   26.2420 C   0  0  0  0  0  0  0  0  0  0  0  0
    5.5150    1.2740   26.8510 C   0  0  0  0  0  0  0  0  0  0  0  0
    5.5300    1.6130   28.1860 C   0  0  0  0  0  0  0  0  0  0  0  0
    6.3620    2.6720   28.3180 N   0  0  0  0  0  0  0  0  0  0  0  0
    6.7200    3.3890   29.5280 C   0  0  0  0  0  0  0  0  0  0  0  0
    7.6030    2.9510   30.0060 H   0  0  0  0  0  0  0  0  0  0  0  0
    5.8840    3.3570   30.2330 H   0  0  0  0  0  0  0  0  0  0  0  0
    6.9350    4.4250   29.2550 H   0  0  0  0  0  0  0  0  0  0  0  0
    6.8990    3.0320   27.1450 N   0  0  0  0  0  0  0  0  0  0  0  0
    5.0060    1.2070   29.0420 H   0  0  0  0  0  0  0  0  0  0  0  0
    4.9450    0.4770   26.3850 H   0  0  0  0  0  0  0  0  0  0  0  0
    7.2750    3.3380   24.6900 H   0  0  0  0  0  0  0  0  0  0  0  0
    5.9260    2.3130   24.1350 H   0  0  0  0  0  0  0  0  0  0  0  0
    9.1360    1.7450   24.4440 C   0  0  0  0  0  0  0  0  0  0  0  0
    9.4900    2.8750   24.7470 O   0  0  0  0  0  0  0  0  0  0  0  0
   10.1240    0.6460   24.1570 C   0  0  0  0  0  0  0  0  0  0  0  0
   11.4120    0.7510   24.6780 C   0  0  0  0  0  0  0  0  0  0  0  0
   12.4090   -0.1430   24.3410 C   0  0  0  0  0  0  0  0  0  0  0  0
   12.0590   -1.1560   23.4600 C   0  0  0  0  0  0  0  0  0  0  0  0
   13.0310   -2.0000   23.0700 F   0  0  0  0  0  0  0  0  0  0  0  0
   10.7820   -1.3280   22.9640 C   0  0  0  0  0  0  0  0  0  0  0  0
    9.7650   -0.4260   23.3240 C   0  0  0  0  0  0  0  0  0  0  0  0
   10.6350   -2.1700   22.2970 H   0  0  0  0  0  0  0  0  0  0  0  0
   13.4290   -0.0520   24.7030 H   0  0  0  0  0  0  0  0  0  0  0  0
   11.6190    1.5620   25.3530 H   0  0  0  0  0  0  0  0  0  0  0  0
    7.6410   -0.6040   24.9060 H   0  0  0  0  0  0  0  0  0  0  0  0
    6.4030   -0.0590   23.7600 H   0  0  0  0  0  0  0  0  0  0  0  0
    6.7160   -2.4260   20.6010 H   0  0  0  0  0  0  0  0  0  0  0  0
    5.7330   -1.7630   21.9190 H   0  0  0  0  0  0  0  0  0  0  0  0
    8.7060   -2.3180   21.7890 H   0  0  0  0  0  0  0  0  0  0  0  0
    8.4730   -2.9520   24.2180 H   0  0  0  0  0  0  0  0  0  0  0  0
    6.7280   -2.6500   24.1120 H   0  0  0  0  0  0  0  0  0  0  0  0
    7.4600   -3.9330   23.1320 H   0  0  0  0  0  0  0  0  0  0  0  0
  1  2  1  0
  1 57  1  0
  1 58  1  0
  1 59  1  0
  2  3  1  0
  2 23  1  0
  2 56  1  6
  3  4  1  0
  3 54  1  0
  3 55  1  0
  4  5  1  0
  4 21  1  0
  5  6  2  0
  5 14  1  0
  6  7  1  0
  6 20  1  0
  7  8  2  0
  8  9  1  0
  8 19  1  0
  9 10  1  0
  9 14  2  0
 10 11  2  0
 10 18  1  0
 11 12  1  0
 11 17  1  0
 12 13  2  0
 12 16  1  0
 13 14  1  0
 13 15  1  0
 21 22  2  0
 23 21  1  0
 23 24  1  1
 23 48  1  0
 24 25  1  0
 24 52  1  0
 24 53  1  0
 25 26  1  0
 25 40  1  0
 26 27  1  0
 26 38  1  0
 26 39  1  0
 27 28  1  0
 27 35  2  0
 28 29  2  0
 28 37  1  0
 29 30  1  0
 29 36  1  0
 30 31  1  0
 30 35  1  0
 31 32  1  0
 31 33  1  0
 31 34  1  0
 40 41  2  0
 40 42  1  0
 42 43  2  0
 42 48  1  0
 43 44  1  0
 43 51  1  0
 44 45  2  0
 44 50  1  0
 45 46  1  0
 45 47  1  0
 47 48  2  0
 47 49  1  0
M  END
>  <MODEL>  (37) 
       1

>  <ApoScore>  (37) 
22.7146

$$$$
mol37_score_20.5410
     RDKit          3D

 48 51  0  0  0  0  0  0  0  0999 V2000
    3.2620   -7.2210   25.8290 N   0  0  0  0  0  0  0  0  0  0  0  0
    3.8190   -6.3290   25.3490 C   0  0  0  0  0  0  0  0  0  0  0  0
    4.4940   -5.2080   24.7420 C   0  0  0  0  0  0  0  0  0  0  0  0
    4.3600   -3.9270   25.2890 C   0  0  0  0  0  0  0  0  0  0  0  0
    4.9950   -2.8510   24.6900 C   0  0  0  0  0  0  0  0  0  0  0  0
    5.7350   -3.0420   23.5220 C   0  0  0  0  0  0  0  0  0  0  0  0
    6.3930   -1.9420   22.9020 N   0  0  0  0  0  0  0  0  0  0  0  0
    7.3300   -1.1550   23.7030 C   0  0  0  0  0  0  0  0  0  0  0  0
    8.7870   -1.3470   23.3250 C   0  0  0  0  0  0  0  0  0  0  0  0
    9.3560   -2.5970   23.5550 C   0  0  0  0  0  0  0  0  0  0  0  0
   10.7070   -2.8030   23.3380 C   0  0  0  0  0  0  0  0  0  0  0  0
   11.4990   -1.8040   22.7800 C   0  0  0  0  0  0  0  0  0  0  0  0
   10.9290   -0.5570   22.5520 C   0  0  0  0  0  0  0  0  0  0  0  0
   11.9230    0.7100   21.8900 Cl  0  0  0  0  0  0  0  0  0  0  0  0
    9.5950   -0.3050   22.8600 C   0  0  0  0  0  0  0  0  0  0  0  0
    9.2000    0.7020   22.7160 H   0  0  0  0  0  0  0  0  0  0  0  0
   12.5230   -1.9950   22.4810 H   0  0  0  0  0  0  0  0  0  0  0  0
   11.1170   -3.7580   23.6360 H   0  0  0  0  0  0  0  0  0  0  0  0
    8.7420   -3.4220   23.9140 H   0  0  0  0  0  0  0  0  0  0  0  0
    7.0550   -0.0900   23.6940 H   0  0  0  0  0  0  0  0  0  0  0  0
    7.1860   -1.5020   24.7320 H   0  0  0  0  0  0  0  0  0  0  0  0
    6.1060   -1.6970   21.5700 C   0  0  0  0  0  0  0  0  0  0  0  0
    5.3050   -2.3720   20.9490 O   0  0  0  0  0  0  0  0  0  0  0  0
    6.8390   -0.5320   20.9030 C   0  0  0  0  0  0  0  0  0  0  0  0
    6.0760    0.0680   19.7620 C   0  0  0  0  0  0  0  0  0  0  0  0
    6.4090   -0.2230   18.4670 C   0  0  0  0  0  0  0  0  0  0  0  0
    5.7630    0.2460   17.3680 N   0  0  0  0  0  0  0  0  0  0  0  0
    4.7360    1.0300   17.5750 C   0  0  0  0  0  0  0  0  0  0  0  0
    4.2750    1.4220   18.8630 C   0  0  0  0  0  0  0  0  0  0  0  0
    3.1590    2.2790   19.0350 C   0  0  0  0  0  0  0  0  0  0  0  0
    2.7440    2.6350   20.2890 C   0  0  0  0  0  0  0  0  0  0  0  0
    3.4250    2.1480   21.4260 C   0  0  0  0  0  0  0  0  0  0  0  0
    4.5060    1.3150   21.2860 C   0  0  0  0  0  0  0  0  0  0  0  0
    4.9620    0.9280   19.9960 C   0  0  0  0  0  0  0  0  0  0  0  0
    5.0110    0.9490   22.1760 H   0  0  0  0  0  0  0  0  0  0  0  0
    3.0910    2.4420   22.4160 H   0  0  0  0  0  0  0  0  0  0  0  0
    1.8930    3.2970   20.4180 H   0  0  0  0  0  0  0  0  0  0  0  0
    2.6490    2.6470   18.1490 H   0  0  0  0  0  0  0  0  0  0  0  0
    4.2110    1.4000   16.6940 H   0  0  0  0  0  0  0  0  0  0  0  0
    7.2590   -0.8750   18.2620 H   0  0  0  0  0  0  0  0  0  0  0  0
    7.7970   -0.9280   20.5400 H   0  0  0  0  0  0  0  0  0  0  0  0
    7.0590    0.2390   21.6450 H   0  0  0  0  0  0  0  0  0  0  0  0
    5.8840   -4.3190   22.9860 C   0  0  0  0  0  0  0  0  0  0  0  0
    5.2740   -5.4000   23.5970 C   0  0  0  0  0  0  0  0  0  0  0  0
    5.3980   -6.3960   23.1860 H   0  0  0  0  0  0  0  0  0  0  0  0
    6.4760   -4.4530   22.0860 H   0  0  0  0  0  0  0  0  0  0  0  0
    4.9040   -1.8560   25.1200 H   0  0  0  0  0  0  0  0  0  0  0  0
    3.7850   -3.7890   26.1980 H   0  0  0  0  0  0  0  0  0  0  0  0
  1  2  3  0
  2  3  1  0
  3  4  2  0
  3 44  1  0
  4  5  1  0
  4 48  1  0
  5  6  2  0
  5 47  1  0
  6  7  1  0
  6 43  1  0
  7  8  1  0
  7 22  1  0
  8  9  1  0
  8 20  1  0
  8 21  1  0
  9 10  2  0
  9 15  1  0
 10 11  1  0
 10 19  1  0
 11 12  2  0
 11 18  1  0
 12 13  1  0
 12 17  1  0
 13 14  1  0
 13 15  2  0
 15 16  1  0
 22 23  2  0
 22 24  1  0
 24 25  1  0
 24 41  1  0
 24 42  1  0
 25 26  2  0
 25 34  1  0
 26 27  1  0
 26 40  1  0
 27 28  2  0
 28 29  1  0
 28 39  1  0
 29 30  1  0
 29 34  2  0
 30 31  2  0
 30 38  1  0
 31 32  1  0
 31 37  1  0
 32 33  2  0
 32 36  1  0
 33 34  1  0
 33 35  1  0
 43 44  2  0
 43 46  1  0
 44 45  1  0
M  END
>  <MODEL>  (38) 
       1

>  <ApoScore>  (38) 
20.5410

$$$$
mol38_score_26.9824
     RDKit          3D

 72 77  0  0  1  0  0  0  0  0999 V2000
    4.8800   -7.5650   20.1370 C   0  0  0  0  0  0  0  0  0  0  0  0
    5.3630   -6.2620   19.6130 N   0  0  0  0  0  0  0  0  0  0  0  0
    5.4900   -5.2000   20.6700 C   0  0  0  0  0  0  0  0  0  0  0  0
    6.6620   -5.4690   21.6210 C   0  0  0  0  0  0  0  0  0  0  0  0
    6.8720   -4.3750   22.5470 N   0  0  0  0  0  0  0  0  0  0  0  0
    7.8940   -3.3810   22.3110 C   0  0  0  0  0  0  0  0  0  0  0  0
    7.4110   -1.9500   22.6600 C   0  0  2  0  0  0  0  0  0  0  0  0
    6.2890   -1.5430   21.6700 C   0  0  0  0  0  0  0  0  0  0  0  0
    5.1730   -2.0170   21.6040 O   0  0  0  0  0  0  0  0  0  0  0  0
    6.7710   -0.5580   20.8320 N   0  0  0  0  0  0  0  0  0  0  0  0
    6.0320    0.0100   19.7710 C   0  0  0  0  0  0  0  0  0  0  0  0
    6.4150   -0.2210   18.4730 C   0  0  0  0  0  0  0  0  0  0  0  0
    5.7760    0.2640   17.3840 N   0  0  0  0  0  0  0  0  0  0  0  0
    4.7360    1.0330   17.5860 C   0  0  0  0  0  0  0  0  0  0  0  0
    4.2620    1.4010   18.8770 C   0  0  0  0  0  0  0  0  0  0  0  0
    3.1610    2.2830   19.0360 C   0  0  0  0  0  0  0  0  0  0  0  0
    2.7660    2.6730   20.2860 C   0  0  0  0  0  0  0  0  0  0  0  0
    3.4480    2.1970   21.4290 C   0  0  0  0  0  0  0  0  0  0  0  0
    4.5040    1.3270   21.3010 C   0  0  0  0  0  0  0  0  0  0  0  0
    4.9310    0.8960   20.0130 C   0  0  0  0  0  0  0  0  0  0  0  0
    5.0300    0.9680   22.1810 H   0  0  0  0  0  0  0  0  0  0  0  0
    3.1350    2.5320   22.4140 H   0  0  0  0  0  0  0  0  0  0  0  0
    1.9350    3.3610   20.4080 H   0  0  0  0  0  0  0  0  0  0  0  0
    2.6580    2.6500   18.1450 H   0  0  0  0  0  0  0  0  0  0  0  0
    4.2240    1.4180   16.7050 H   0  0  0  0  0  0  0  0  0  0  0  0
    7.2770   -0.8540   18.2700 H   0  0  0  0  0  0  0  0  0  0  0  0
    8.2030   -0.3840   20.9330 C   0  0  0  0  0  0  0  0  0  0  0  0
    8.5150   -0.9030   22.3470 C   0  0  2  0  0  0  0  0  0  0  0  0
    9.9600   -1.3890   22.4570 C   0  0  0  0  0  0  0  0  0  0  0  0
   10.8450   -0.3010   22.4050 O   0  0  0  0  0  0  0  0  0  0  0  0
   11.3360   -0.0110   23.6820 C   0  0  0  0  0  0  0  0  0  0  0  0
   11.9560    1.3160   23.4920 C   0  0  0  0  0  0  0  0  0  0  0  0
   10.9700    2.2850   23.3640 C   0  0  0  0  0  0  0  0  0  0  0  0
   10.7300    3.8810   24.2170 S   0  0  0  0  0  0  0  0  0  0  0  0
   11.9170    4.7270   24.1370 O   0  0  0  0  0  0  0  0  0  0  0  0
   10.0810    3.5930   25.4990 O   0  0  0  0  0  0  0  0  0  0  0  0
   12.1210    1.3090   23.7920 C   0  0  0  0  0  0  0  0  0  0  0  0
   13.1730    1.0570   24.5260 H   0  0  0  0  0  0  0  0  0  0  0  0
   12.1190    1.4390   25.0210 H   0  0  0  0  0  0  0  0  0  0  0  0
   11.1200    2.4270   22.3020 H   0  0  0  0  0  0  0  0  0  0  0  0
   10.0000    1.7960   23.4130 H   0  0  0  0  0  0  0  0  0  0  0  0
   13.0190    1.6240   22.6640 H   0  0  0  0  0  0  0  0  0  0  0  0
   10.4850    0.0620   24.3690 H   0  0  0  0  0  0  0  0  0  0  0  0
   12.0110   -0.8190   23.9980 H   0  0  0  0  0  0  0  0  0  0  0  0
   10.1970   -2.0640   21.6200 H   0  0  0  0  0  0  0  0  0  0  0  0
   10.1220   -1.9540   23.3890 H   0  0  0  0  0  0  0  0  0  0  0  0
    8.3890   -0.0600   23.0320 H   0  0  0  0  0  0  0  0  0  0  0  0
    8.4600    0.6690   20.7910 H   0  0  0  0  0  0  0  0  0  0  0  0
    8.7450   -0.9660   20.1720 H   0  0  0  0  0  0  0  0  0  0  0  0
    6.9170   -2.0030   24.1000 C   0  0  0  0  0  0  0  0  0  0  0  0
    6.9610   -0.9000   24.9620 C   0  0  0  0  0  0  0  0  0  0  0  0
    6.5120   -1.0200   26.2660 C   0  0  0  0  0  0  0  0  0  0  0  0
    6.5990    0.3620   27.3220 Cl  0  0  0  0  0  0  0  0  0  0  0  0
    5.9860   -2.2120   26.7600 C   0  0  0  0  0  0  0  0  0  0  0  0
    5.8960   -3.2900   25.9030 C   0  0  0  0  0  0  0  0  0  0  0  0
    6.3450   -3.1880   24.5890 C   0  0  0  0  0  0  0  0  0  0  0  0
    6.1690   -4.3900   23.7130 C   0  0  0  0  0  0  0  0  0  0  0  0
    5.4400   -5.3220   24.0280 O   0  0  0  0  0  0  0  0  0  0  0  0
    5.4740   -4.2360   26.2260 H   0  0  0  0  0  0  0  0  0  0  0  0
    5.6490   -2.2770   27.7890 H   0  0  0  0  0  0  0  0  0  0  0  0
    7.3170    0.0680   24.6350 H   0  0  0  0  0  0  0  0  0  0  0  0
    8.7830   -3.6060   22.9160 H   0  0  0  0  0  0  0  0  0  0  0  0
    8.1840   -3.4080   21.2640 H   0  0  0  0  0  0  0  0  0  0  0  0
    7.5930   -5.6350   21.0650 H   0  0  0  0  0  0  0  0  0  0  0  0
    6.4450   -6.3480   22.2320 H   0  0  0  0  0  0  0  0  0  0  0  0
    4.5690   -5.1710   21.2580 H   0  0  0  0  0  0  0  0  0  0  0  0
    5.6040   -4.2400   20.1760 H   0  0  0  0  0  0  0  0  0  0  0  0
    6.3190   -6.4090   19.2150 H   0  0  0  0  0  0  0  0  0  0  0  0
    4.7210   -5.9760   18.8520 H   0  0  0  0  0  0  0  0  0  0  0  0
    4.1460   -7.4030   20.9260 H   0  0  0  0  0  0  0  0  0  0  0  0
    4.4110   -8.1310   19.3330 H   0  0  0  0  0  0  0  0  0  0  0  0
    5.6910   -8.1530   20.5600 H   0  0  0  0  0  0  0  0  0  0  0  0
  1  2  1  0
  1 70  1  0
  1 71  1  0
  1 72  1  0
  2  3  1  0
  2 68  1  0
  2 69  1  0
  3  4  1  0
  3 66  1  0
  3 67  1  0
  4  5  1  0
  4 64  1  0
  4 65  1  0
  5  6  1  0
  5 57  1  0
  7  6  1  6
  6 62  1  0
  6 63  1  0
  7  8  1  0
  7 28  1  0
  7 50  1  0
  8  9  2  0
  8 10  1  0
 10 11  1  0
 10 27  1  0
 11 12  2  0
 11 20  1  0
 12 13  1  0
 12 26  1  0
 13 14  2  0
 14 15  1  0
 14 25  1  0
 15 16  1  0
 15 20  2  0
 16 17  2  0
 16 24  1  0
 17 18  1  0
 17 23  1  0
 18 19  2  0
 18 22  1  0
 19 20  1  0
 19 21  1  0
 27 28  1  0
 27 48  1  0
 27 49  1  0
 28 29  1  0
 28 47  1  1
 29 30  1  0
 29 45  1  0
 29 46  1  0
 30 31  1  0
 31 32  1  0
 31 43  1  0
 31 44  1  0
 32 33  1  0
 32 37  1  0
 32 42  1  0
 33 34  1  0
 33 40  1  0
 33 41  1  0
 34 35  2  0
 34 36  2  0
 34 37  1  0
 37 38  1  0
 37 39  1  0
 50 51  1  0
 50 56  2  0
 51 52  2  0
 51 61  1  0
 52 53  1  0
 52 54  1  0
 54 55  2  0
 54 60  1  0
 55 56  1  0
 55 59  1  0
 56 57  1  0
 57 58  2  0
M  CHG  1   2   1
M  END
>  <MODEL>  (39) 
       1

>  <ApoScore>  (39) 
26.9824

$$$$
mol39_score_26.4037
     RDKit          3D

 60 64  0  0  1  0  0  0  0  0999 V2000
   10.4200   -0.3110   25.0160 C   0  0  0  0  0  0  0  0  0  0  0  0
   10.1460    0.6440   23.8650 C   0  0  0  0  0  0  0  0  0  0  0  0
    9.7900   -0.0340   22.6750 O   0  0  0  0  0  0  0  0  0  0  0  0
    8.4330   -0.3910   22.5530 C   0  0  1  0  0  0  0  0  0  0  0  0
    7.8170    0.4390   21.4280 C   0  0  0  0  0  0  0  0  0  0  0  0
    6.8320   -0.4450   20.8520 N   0  0  0  0  0  0  0  0  0  0  0  0
    6.0560   -0.0070   19.7510 C   0  0  0  0  0  0  0  0  0  0  0  0
    6.3950   -0.3200   18.4580 C   0  0  0  0  0  0  0  0  0  0  0  0
    5.7640    0.1810   17.3640 N   0  0  0  0  0  0  0  0  0  0  0  0
    4.7690    1.0120   17.5670 C   0  0  0  0  0  0  0  0  0  0  0  0
    4.3020    1.4030   18.8550 C   0  0  0  0  0  0  0  0  0  0  0  0
    3.2000    2.2830   19.0300 C   0  0  0  0  0  0  0  0  0  0  0  0
    2.7840    2.6240   20.2890 C   0  0  0  0  0  0  0  0  0  0  0  0
    3.4500    2.1170   21.4260 C   0  0  0  0  0  0  0  0  0  0  0  0
    4.5220    1.2690   21.2820 C   0  0  0  0  0  0  0  0  0  0  0  0
    4.9680    0.8910   19.9860 C   0  0  0  0  0  0  0  0  0  0  0  0
    5.0330    0.8730   22.1520 H   0  0  0  0  0  0  0  0  0  0  0  0
    3.1140    2.4010   22.4200 H   0  0  0  0  0  0  0  0  0  0  0  0
    1.9340    3.2900   20.4220 H   0  0  0  0  0  0  0  0  0  0  0  0
    2.7030    2.6750   18.1470 H   0  0  0  0  0  0  0  0  0  0  0  0
    4.2720    1.4130   16.6830 H   0  0  0  0  0  0  0  0  0  0  0  0
    7.2230   -0.9960   18.2560 H   0  0  0  0  0  0  0  0  0  0  0  0
    7.0430   -1.7770   21.1480 C   0  0  0  0  0  0  0  0  0  0  0  0
    6.3640   -2.6750   20.6920 O   0  0  0  0  0  0  0  0  0  0  0  0
    8.2080   -1.8930   22.1540 C   0  0  1  0  0  0  0  0  0  0  0  0
    9.4670   -2.4840   21.4620 C   0  0  0  0  0  0  0  0  0  0  0  0
   10.5570   -2.7570   22.4010 N   0  0  0  0  0  0  0  0  0  0  0  0
   11.9560   -2.5390   22.0590 C   0  0  0  0  0  0  0  0  0  0  0  0
   12.6260   -1.3610   22.7840 C   0  0  0  0  0  0  0  0  0  0  0  0
   13.0270   -1.4780   23.9390 O   0  0  0  0  0  0  0  0  0  0  0  0
   12.7920   -0.2010   22.0880 N   0  0  0  0  0  0  0  0  0  0  0  0
   13.6160    0.8600   22.6500 C   0  0  0  0  0  0  0  0  0  0  0  0
   13.5170    1.7980   22.0940 H   0  0  0  0  0  0  0  0  0  0  0  0
   14.6680    0.5690   22.6590 H   0  0  0  0  0  0  0  0  0  0  0  0
   13.3270    1.0410   23.6900 H   0  0  0  0  0  0  0  0  0  0  0  0
   12.4810   -0.1950   21.1330 H   0  0  0  0  0  0  0  0  0  0  0  0
   12.0320   -2.4360   20.9720 H   0  0  0  0  0  0  0  0  0  0  0  0
   12.5070   -3.4230   22.3990 H   0  0  0  0  0  0  0  0  0  0  0  0
   10.3050   -3.4630   23.5450 C   0  0  0  0  0  0  0  0  0  0  0  0
   11.1790   -3.9810   24.2250 O   0  0  0  0  0  0  0  0  0  0  0  0
    8.8710   -3.5390   23.9690 C   0  0  0  0  0  0  0  0  0  0  0  0
    8.5940   -4.3200   25.0900 C   0  0  0  0  0  0  0  0  0  0  0  0
    7.3140   -4.3880   25.6030 C   0  0  0  0  0  0  0  0  0  0  0  0
    6.3050   -3.6750   24.9560 C   0  0  0  0  0  0  0  0  0  0  0  0
    4.6800   -3.7740   25.5750 Cl  0  0  0  0  0  0  0  0  0  0  0  0
    6.5580   -2.9020   23.8310 C   0  0  0  0  0  0  0  0  0  0  0  0
    7.8650   -2.8010   23.3290 C   0  0  0  0  0  0  0  0  0  0  0  0
    5.7300   -2.4070   23.3330 H   0  0  0  0  0  0  0  0  0  0  0  0
    7.0770   -5.0020   26.4710 H   0  0  0  0  0  0  0  0  0  0  0  0
    9.4100   -4.8740   25.5490 H   0  0  0  0  0  0  0  0  0  0  0  0
    9.8030   -1.7700   20.7120 H   0  0  0  0  0  0  0  0  0  0  0  0
    9.1640   -3.4100   20.9630 H   0  0  0  0  0  0  0  0  0  0  0  0
    7.3540    1.3600   21.7940 H   0  0  0  0  0  0  0  0  0  0  0  0
    8.5950    0.7160   20.7000 H   0  0  0  0  0  0  0  0  0  0  0  0
    7.9000   -0.2120   23.4990 H   0  0  0  0  0  0  0  0  0  0  0  0
    9.3580    1.3640   24.1360 H   0  0  0  0  0  0  0  0  0  0  0  0
   11.0350    1.2320   23.6180 H   0  0  0  0  0  0  0  0  0  0  0  0
   11.2520   -0.9780   24.7980 H   0  0  0  0  0  0  0  0  0  0  0  0
    9.5410   -0.9220   25.2510 H   0  0  0  0  0  0  0  0  0  0  0  0
   10.7090    0.2560   25.8990 H   0  0  0  0  0  0  0  0  0  0  0  0
  1  2  1  0
  1 58  1  0
  1 59  1  0
  1 60  1  0
  2  3  1  0
  2 56  1  0
  2 57  1  0
  3  4  1  0
  4  5  1  0
  4 25  1  0
  4 55  1  1
  5  6  1  0
  5 53  1  0
  5 54  1  0
  6  7  1  0
  6 23  1  0
  7  8  2  0
  7 16  1  0
  8  9  1  0
  8 22  1  0
  9 10  2  0
 10 11  1  0
 10 21  1  0
 11 12  1  0
 11 16  2  0
 12 13  2  0
 12 20  1  0
 13 14  1  0
 13 19  1  0
 14 15  2  0
 14 18  1  0
 15 16  1  0
 15 17  1  0
 23 24  2  0
 25 23  1  0
 25 26  1  6
 25 47  1  0
 26 27  1  0
 26 51  1  0
 26 52  1  0
 27 28  1  0
 27 39  1  0
 28 29  1  0
 28 37  1  0
 28 38  1  0
 29 30  2  0
 29 31  1  0
 31 32  1  0
 31 36  1  0
 32 33  1  0
 32 34  1  0
 32 35  1  0
 39 40  2  0
 39 41  1  0
 41 42  2  0
 41 47  1  0
 42 43  1  0
 42 50  1  0
 43 44  2  0
 43 49  1  0
 44 45  1  0
 44 46  1  0
 46 47  2  0
 46 48  1  0
M  END
>  <MODEL>  (40) 
       1

>  <ApoScore>  (40) 
26.4037

$$$$
mol40_score_22.9799
     RDKit          3D

 57 61  0  0  1  0  0  0  0  0999 V2000
    7.7490   -8.4820   22.8240 C   0  0  0  0  0  0  0  0  0  0  0  0
    6.8700   -7.3570   22.5950 N   0  0  0  0  0  0  0  0  0  0  0  0
    7.1770   -6.4150   21.6700 C   0  0  0  0  0  0  0  0  0  0  0  0
    8.1370   -6.5000   20.9250 O   0  0  0  0  0  0  0  0  0  0  0  0
    6.2400   -5.2090   21.6710 C   0  0  0  0  0  0  0  0  0  0  0  0
    6.7010   -4.2250   22.6350 N   0  0  0  0  0  0  0  0  0  0  0  0
    7.8100   -3.3320   22.3400 C   0  0  0  0  0  0  0  0  0  0  0  0
    7.4440   -1.8560   22.6710 C   0  0  2  0  0  0  0  0  0  0  0  0
    6.3410   -1.4040   21.6870 C   0  0  0  0  0  0  0  0  0  0  0  0
    5.2140   -1.8490   21.6220 O   0  0  0  0  0  0  0  0  0  0  0  0
    6.8620   -0.4320   20.8540 N   0  0  0  0  0  0  0  0  0  0  0  0
    6.1160    0.0980   19.7800 C   0  0  0  0  0  0  0  0  0  0  0  0
    6.4560   -0.2000   18.4860 C   0  0  0  0  0  0  0  0  0  0  0  0
    5.7880    0.2450   17.3960 N   0  0  0  0  0  0  0  0  0  0  0  0
    4.7540    1.0230   17.5990 C   0  0  0  0  0  0  0  0  0  0  0  0
    4.3020    1.4190   18.8880 C   0  0  0  0  0  0  0  0  0  0  0  0
    3.1850    2.2770   19.0490 C   0  0  0  0  0  0  0  0  0  0  0  0
    2.7840    2.6600   20.2970 C   0  0  0  0  0  0  0  0  0  0  0  0
    3.4790    2.2100   21.4400 C   0  0  0  0  0  0  0  0  0  0  0  0
    4.5620    1.3790   21.3130 C   0  0  0  0  0  0  0  0  0  0  0  0
    4.9970    0.9540   20.0250 C   0  0  0  0  0  0  0  0  0  0  0  0
    5.0870    1.0400   22.2000 H   0  0  0  0  0  0  0  0  0  0  0  0
    3.1550    2.5360   22.4230 H   0  0  0  0  0  0  0  0  0  0  0  0
    1.9380    3.3280   20.4170 H   0  0  0  0  0  0  0  0  0  0  0  0
    2.6720    2.6300   18.1590 H   0  0  0  0  0  0  0  0  0  0  0  0
    4.2160    1.3880   16.7240 H   0  0  0  0  0  0  0  0  0  0  0  0
    7.3000   -0.8600   18.2920 H   0  0  0  0  0  0  0  0  0  0  0  0
    8.3090   -0.3390   20.9380 C   0  0  0  0  0  0  0  0  0  0  0  0
    8.6090   -0.8830   22.3450 C   0  0  2  0  0  0  0  0  0  0  0  0
   10.0210   -1.4890   22.4550 C   0  0  0  0  0  0  0  0  0  0  0  0
   11.0500   -0.4530   22.3080 C   0  0  0  0  0  0  0  0  0  0  0  0
   11.8330    0.3910   22.2050 N   0  0  0  0  0  0  0  0  0  0  0  0
   10.1820   -2.2470   21.6800 H   0  0  0  0  0  0  0  0  0  0  0  0
   10.1570   -1.9720   23.4290 H   0  0  0  0  0  0  0  0  0  0  0  0
    8.5680   -0.0380   23.0380 H   0  0  0  0  0  0  0  0  0  0  0  0
    8.8130   -0.9380   20.1630 H   0  0  0  0  0  0  0  0  0  0  0  0
    8.6380    0.6980   20.8210 H   0  0  0  0  0  0  0  0  0  0  0  0
    6.9210   -1.8180   24.0980 C   0  0  0  0  0  0  0  0  0  0  0  0
    6.8900   -0.6360   24.8470 C   0  0  0  0  0  0  0  0  0  0  0  0
    6.4080   -0.6620   26.1440 C   0  0  0  0  0  0  0  0  0  0  0  0
    6.2710    0.8270   27.0280 Cl  0  0  0  0  0  0  0  0  0  0  0  0
    5.9830   -1.8370   26.7620 C   0  0  0  0  0  0  0  0  0  0  0  0
    5.9510   -2.9870   26.0020 C   0  0  0  0  0  0  0  0  0  0  0  0
    6.3400   -2.9610   24.6650 C   0  0  0  0  0  0  0  0  0  0  0  0
    6.0190   -4.1410   23.8090 C   0  0  0  0  0  0  0  0  0  0  0  0
    5.1620   -4.9680   24.1180 O   0  0  0  0  0  0  0  0  0  0  0  0
    5.5950   -3.9180   26.4250 H   0  0  0  0  0  0  0  0  0  0  0  0
    5.6340   -1.8280   27.7910 H   0  0  0  0  0  0  0  0  0  0  0  0
    7.2110    0.3120   24.4260 H   0  0  0  0  0  0  0  0  0  0  0  0
    8.7100   -3.6240   22.9040 H   0  0  0  0  0  0  0  0  0  0  0  0
    8.0340   -3.4280   21.2820 H   0  0  0  0  0  0  0  0  0  0  0  0
    5.2430   -5.5270   21.9810 H   0  0  0  0  0  0  0  0  0  0  0  0
    6.1500   -4.7460   20.6820 H   0  0  0  0  0  0  0  0  0  0  0  0
    6.0830   -7.2060   23.2080 H   0  0  0  0  0  0  0  0  0  0  0  0
    7.1520   -9.3020   23.2300 H   0  0  0  0  0  0  0  0  0  0  0  0
    8.1320   -8.7910   21.8590 H   0  0  0  0  0  0  0  0  0  0  0  0
    8.5940   -8.2270   23.4870 H   0  0  0  0  0  0  0  0  0  0  0  0
  1  2  1  0
  1 55  1  0
  1 56  1  0
  1 57  1  0
  2  3  1  0
  2 54  1  0
  3  4  2  0
  3  5  1  0
  5  6  1  0
  5 52  1  0
  5 53  1  0
  6  7  1  0
  6 45  1  0
  8  7  1  6
  7 50  1  0
  7 51  1  0
  8  9  1  0
  8 29  1  0
  8 38  1  0
  9 10  2  0
  9 11  1  0
 11 12  1  0
 11 28  1  0
 12 13  2  0
 12 21  1  0
 13 14  1  0
 13 27  1  0
 14 15  2  0
 15 16  1  0
 15 26  1  0
 16 17  1  0
 16 21  2  0
 17 18  2  0
 17 25  1  0
 18 19  1  0
 18 24  1  0
 19 20  2  0
 19 23  1  0
 20 21  1  0
 20 22  1  0
 28 29  1  0
 28 36  1  0
 28 37  1  0
 29 30  1  0
 29 35  1  1
 30 31  1  0
 30 33  1  0
 30 34  1  0
 31 32  3  0
 38 39  1  0
 38 44  2  0
 39 40  2  0
 39 49  1  0
 40 41  1  0
 40 42  1  0
 42 43  2  0
 42 48  1  0
 43 44  1  0
 43 47  1  0
 44 45  1  0
 45 46  2  0
M  END
>  <MODEL>  (41) 
       1

>  <ApoScore>  (41) 
22.9799

$$$$
mol41_score_21.6721
     RDKit          3D

 68 73  0  0  1  0  0  0  0  0999 V2000
    7.1300   -2.4710   23.4510 C   0  0  0  0  0  0  0  0  0  0  0  0
    8.0070   -1.7820   22.3980 C   0  0  1  0  0  0  0  0  0  0  0  0
    7.3030   -1.7150   21.0260 C   0  0  0  0  0  0  0  0  0  0  0  0
    6.9320   -0.3250   20.8670 N   0  0  0  0  0  0  0  0  0  0  0  0
    6.1460    0.1290   19.7870 C   0  0  0  0  0  0  0  0  0  0  0  0
    6.4450   -0.2270   18.4940 C   0  0  0  0  0  0  0  0  0  0  0  0
    5.7710    0.2180   17.4080 N   0  0  0  0  0  0  0  0  0  0  0  0
    4.7540    1.0170   17.6090 C   0  0  0  0  0  0  0  0  0  0  0  0
    4.3050    1.4230   18.8970 C   0  0  0  0  0  0  0  0  0  0  0  0
    3.1830    2.2770   19.0630 C   0  0  0  0  0  0  0  0  0  0  0  0
    2.7510    2.6230   20.3140 C   0  0  0  0  0  0  0  0  0  0  0  0
    3.4160    2.1230   21.4580 C   0  0  0  0  0  0  0  0  0  0  0  0
    4.5090    1.3050   21.3220 C   0  0  0  0  0  0  0  0  0  0  0  0
    5.0020    0.9520   20.0310 C   0  0  0  0  0  0  0  0  0  0  0  0
    5.0120    0.9240   22.2060 H   0  0  0  0  0  0  0  0  0  0  0  0
    3.0740    2.4100   22.4500 H   0  0  0  0  0  0  0  0  0  0  0  0
    1.9010    3.2880   20.4390 H   0  0  0  0  0  0  0  0  0  0  0  0
    2.6830    2.6470   18.1720 H   0  0  0  0  0  0  0  0  0  0  0  0
    4.2240    1.3760   16.7270 H   0  0  0  0  0  0  0  0  0  0  0  0
    7.2920   -0.8780   18.2800 H   0  0  0  0  0  0  0  0  0  0  0  0
    7.6370    0.5270   21.6850 C   0  0  0  0  0  0  0  0  0  0  0  0
    7.6160    1.7420   21.6050 O   0  0  0  0  0  0  0  0  0  0  0  0
    8.4420   -0.3120   22.7040 C   0  0  1  0  0  0  0  0  0  0  0  0
    8.1190    0.1310   24.1400 C   0  0  0  0  0  0  0  0  0  0  0  0
    8.6030    1.4680   24.4220 N   0  0  0  0  0  0  0  0  0  0  0  0
    7.7730    2.3170   25.2500 C   0  0  0  0  0  0  0  0  0  0  0  0
    6.7420    3.0930   24.4340 C   0  0  0  0  0  0  0  0  0  0  0  0
    7.3670    4.1660   23.5900 N   0  0  0  0  0  0  0  0  0  0  0  0
    7.9190    5.2920   24.4530 C   0  0  0  0  0  0  0  0  0  0  0  0
    8.0240    6.6210   23.7120 C   0  0  0  0  0  0  0  0  0  0  0  0
    6.4050    7.2560   23.2600 S   0  0  0  0  0  0  0  0  0  0  0  0
    5.8230    7.8880   24.4430 O   0  0  0  0  0  0  0  0  0  0  0  0
    6.5450    8.0080   22.0180 O   0  0  0  0  0  0  0  0  0  0  0  0
    5.4870    5.7510   22.9260 C   0  0  0  0  0  0  0  0  0  0  0  0
    6.4350    4.6390   22.4900 C   0  0  0  0  0  0  0  0  0  0  0  0
    5.8600    3.7750   22.1540 H   0  0  0  0  0  0  0  0  0  0  0  0
    7.0530    4.9700   21.6500 H   0  0  0  0  0  0  0  0  0  0  0  0
    4.7730    6.0250   22.1450 H   0  0  0  0  0  0  0  0  0  0  0  0
    4.9470    5.5080   23.8470 H   0  0  0  0  0  0  0  0  0  0  0  0
    8.6010    6.5480   22.7860 H   0  0  0  0  0  0  0  0  0  0  0  0
    8.4430    7.4100   24.3420 H   0  0  0  0  0  0  0  0  0  0  0  0
    7.2660    5.4120   25.3250 H   0  0  0  0  0  0  0  0  0  0  0  0
    8.9110    5.0010   24.8030 H   0  0  0  0  0  0  0  0  0  0  0  0
    8.1560    3.7150   23.0930 H   0  0  0  0  0  0  0  0  0  0  0  0
    6.2210    2.4100   23.7540 H   0  0  0  0  0  0  0  0  0  0  0  0
    6.0040    3.5430   25.1080 H   0  0  0  0  0  0  0  0  0  0  0  0
    8.4430    2.9820   25.7940 H   0  0  0  0  0  0  0  0  0  0  0  0
    7.2560    1.6780   25.9730 H   0  0  0  0  0  0  0  0  0  0  0  0
    9.8830    1.8410   24.1380 C   0  0  0  0  0  0  0  0  0  0  0  0
   10.3910    2.8660   24.5830 O   0  0  0  0  0  0  0  0  0  0  0  0
   10.6140    0.9420   23.1880 C   0  0  0  0  0  0  0  0  0  0  0  0
   11.9540    1.2180   22.9140 C   0  0  0  0  0  0  0  0  0  0  0  0
   12.6750    0.3980   22.0580 C   0  0  0  0  0  0  0  0  0  0  0  0
   12.0070   -0.6660   21.4490 C   0  0  0  0  0  0  0  0  0  0  0  0
   12.7180   -1.5970   20.1380 Cl  0  0  0  0  0  0  0  0  0  0  0  0
   10.6530   -0.8660   21.6170 C   0  0  0  0  0  0  0  0  0  0  0  0
    9.9360   -0.0910   22.5250 C   0  0  0  0  0  0  0  0  0  0  0  0
   10.1750   -1.5720   20.9480 H   0  0  0  0  0  0  0  0  0  0  0  0
   13.7040    0.6200   21.8040 H   0  0  0  0  0  0  0  0  0  0  0  0
   12.3810    2.1110   23.3660 H   0  0  0  0  0  0  0  0  0  0  0  0
    8.5860   -0.5980   24.8210 H   0  0  0  0  0  0  0  0  0  0  0  0
    7.0380    0.1320   24.2920 H   0  0  0  0  0  0  0  0  0  0  0  0
    6.4090   -2.3480   20.9870 H   0  0  0  0  0  0  0  0  0  0  0  0
    7.9770   -2.0160   20.2170 H   0  0  0  0  0  0  0  0  0  0  0  0
    8.9080   -2.3980   22.3170 H   0  0  0  0  0  0  0  0  0  0  0  0
    7.6480   -2.5540   24.4130 H   0  0  0  0  0  0  0  0  0  0  0  0
    6.8970   -3.4910   23.1270 H   0  0  0  0  0  0  0  0  0  0  0  0
    6.1830   -1.9420   23.6090 H   0  0  0  0  0  0  0  0  0  0  0  0
  1  2  1  0
  1 66  1  0
  1 67  1  0
  1 68  1  0
  2  3  1  0
  2 23  1  0
  2 65  1  6
  3  4  1  0
  3 63  1  0
  3 64  1  0
  4  5  1  0
  4 21  1  0
  5  6  2  0
  5 14  1  0
  6  7  1  0
  6 20  1  0
  7  8  2  0
  8  9  1  0
  8 19  1  0
  9 10  1  0
  9 14  2  0
 10 11  2  0
 10 18  1  0
 11 12  1  0
 11 17  1  0
 12 13  2  0
 12 16  1  0
 13 14  1  0
 13 15  1  0
 21 22  2  0
 23 21  1  0
 23 24  1  1
 23 57  1  0
 24 25  1  0
 24 61  1  0
 24 62  1  0
 25 26  1  0
 25 49  1  0
 26 27  1  0
 26 47  1  0
 26 48  1  0
 27 28  1  0
 27 45  1  0
 27 46  1  0
 28 29  1  0
 28 35  1  0
 28 44  1  0
 29 30  1  0
 29 42  1  0
 29 43  1  0
 30 31  1  0
 30 40  1  0
 30 41  1  0
 31 32  2  0
 31 33  2  0
 31 34  1  0
 34 35  1  0
 34 38  1  0
 34 39  1  0
 35 36  1  0
 35 37  1  0
 49 50  2  0
 49 51  1  0
 51 52  2  0
 51 57  1  0
 52 53  1  0
 52 60  1  0
 53 54  2  0
 53 59  1  0
 54 55  1  0
 54 56  1  0
 56 57  2  0
 56 58  1  0
M  CHG  1  28   1
M  END
>  <MODEL>  (42) 
       1

>  <ApoScore>  (42) 
21.6721

$$$$
mol42_score_27.4007
     RDKit          3D

 60 65  0  0  1  0  0  0  0  0999 V2000
   13.7870   -0.2130   23.9050 C   0  0  0  0  0  0  0  0  0  0  0  0
   12.9560   -1.3450   23.5530 N   0  0  0  0  0  0  0  0  0  0  0  0
   12.4780   -1.3350   22.2850 C   0  0  0  0  0  0  0  0  0  0  0  0
   12.5280   -0.3130   21.6070 O   0  0  0  0  0  0  0  0  0  0  0  0
   11.8980   -2.6410   21.7620 C   0  0  0  0  0  0  0  0  0  0  0  0
   10.5310   -2.8520   22.2060 N   0  0  0  0  0  0  0  0  0  0  0  0
    9.3910   -2.5350   21.3560 C   0  0  0  0  0  0  0  0  0  0  0  0
    8.1770   -1.9290   22.1210 C   0  0  2  0  0  0  0  0  0  0  0  0
    6.9950   -1.8070   21.1330 C   0  0  0  0  0  0  0  0  0  0  0  0
    6.3150   -2.7060   20.6830 O   0  0  0  0  0  0  0  0  0  0  0  0
    6.8080   -0.4700   20.8350 N   0  0  0  0  0  0  0  0  0  0  0  0
    6.0450   -0.0070   19.7390 C   0  0  0  0  0  0  0  0  0  0  0  0
    6.3980   -0.3030   18.4470 C   0  0  0  0  0  0  0  0  0  0  0  0
    5.7650    0.2030   17.3580 N   0  0  0  0  0  0  0  0  0  0  0  0
    4.7600    1.0220   17.5600 C   0  0  0  0  0  0  0  0  0  0  0  0
    4.2970    1.4100   18.8510 C   0  0  0  0  0  0  0  0  0  0  0  0
    3.1900    2.2800   19.0340 C   0  0  0  0  0  0  0  0  0  0  0  0
    2.7770    2.6180   20.2940 C   0  0  0  0  0  0  0  0  0  0  0  0
    3.4540    2.1160   21.4280 C   0  0  0  0  0  0  0  0  0  0  0  0
    4.5290    1.2770   21.2770 C   0  0  0  0  0  0  0  0  0  0  0  0
    4.9670    0.8970   19.9800 C   0  0  0  0  0  0  0  0  0  0  0  0
    5.0500    0.8840   22.1440 H   0  0  0  0  0  0  0  0  0  0  0  0
    3.1260    2.3930   22.4260 H   0  0  0  0  0  0  0  0  0  0  0  0
    1.9220    3.2740   20.4350 H   0  0  0  0  0  0  0  0  0  0  0  0
    2.6820    2.6660   18.1540 H   0  0  0  0  0  0  0  0  0  0  0  0
    4.2510    1.4170   16.6800 H   0  0  0  0  0  0  0  0  0  0  0  0
    7.2390   -0.9610   18.2400 H   0  0  0  0  0  0  0  0  0  0  0  0
    7.7450    0.4210   21.4810 C   0  0  0  0  0  0  0  0  0  0  0  0
    8.3470   -0.4310   22.5980 C   0  0  2  0  0  0  0  0  0  0  0  0
    9.8050   -0.0630   22.8770 C   0  0  0  0  0  0  0  0  0  0  0  0
   10.2010    1.3060   23.3210 C   0  0  0  0  0  0  0  0  0  0  0  0
   10.1260    2.3680   22.5270 N   0  0  0  0  0  0  0  0  0  0  0  0
   10.7040    3.3540   23.2030 N   0  0  0  0  0  0  0  0  0  0  0  0
   11.1080    2.9130   24.3590 N   0  0  0  0  0  0  0  0  0  0  0  0
   10.8160    1.6160   24.4590 N   0  0  0  0  0  0  0  0  0  0  0  0
   10.3240   -0.1740   21.9210 H   0  0  0  0  0  0  0  0  0  0  0  0
   10.2200   -0.7760   23.5800 H   0  0  0  0  0  0  0  0  0  0  0  0
    7.7270   -0.3250   23.4970 H   0  0  0  0  0  0  0  0  0  0  0  0
    8.5350    0.7570   20.7940 H   0  0  0  0  0  0  0  0  0  0  0  0
    7.2580    1.3320   21.8450 H   0  0  0  0  0  0  0  0  0  0  0  0
    7.8990   -2.8740   23.2740 C   0  0  0  0  0  0  0  0  0  0  0  0
    6.6140   -2.9640   23.8220 C   0  0  0  0  0  0  0  0  0  0  0  0
    6.3980   -3.7370   24.9500 C   0  0  0  0  0  0  0  0  0  0  0  0
    4.7960   -3.8380   25.6250 Cl  0  0  0  0  0  0  0  0  0  0  0  0
    7.4350   -4.4530   25.5490 C   0  0  0  0  0  0  0  0  0  0  0  0
    8.7050   -4.3710   25.0060 C   0  0  0  0  0  0  0  0  0  0  0  0
    8.9450   -3.5800   23.8850 C   0  0  0  0  0  0  0  0  0  0  0  0
   10.3600   -3.4410   23.4200 C   0  0  0  0  0  0  0  0  0  0  0  0
   11.3120   -3.7860   24.1200 O   0  0  0  0  0  0  0  0  0  0  0  0
    9.5440   -4.9040   25.4450 H   0  0  0  0  0  0  0  0  0  0  0  0
    7.2370   -5.0930   26.4040 H   0  0  0  0  0  0  0  0  0  0  0  0
    5.7790   -2.4470   23.3610 H   0  0  0  0  0  0  0  0  0  0  0  0
    9.6990   -1.8490   20.5640 H   0  0  0  0  0  0  0  0  0  0  0  0
    9.0530   -3.4690   20.9030 H   0  0  0  0  0  0  0  0  0  0  0  0
   11.9400   -2.6320   20.6720 H   0  0  0  0  0  0  0  0  0  0  0  0
   12.5050   -3.4720   22.1320 H   0  0  0  0  0  0  0  0  0  0  0  0
   13.0300   -2.2180   24.0590 H   0  0  0  0  0  0  0  0  0  0  0  0
   13.2180    0.7130   23.8790 H   0  0  0  0  0  0  0  0  0  0  0  0
   14.2280   -0.3560   24.8870 H   0  0  0  0  0  0  0  0  0  0  0  0
   14.5630   -0.0840   23.1530 H   0  0  0  0  0  0  0  0  0  0  0  0
  1  2  1  0
  1 58  1  0
  1 59  1  0
  1 60  1  0
  2  3  1  0
  2 57  1  0
  3  4  2  0
  3  5  1  0
  5  6  1  0
  5 55  1  0
  5 56  1  0
  6  7  1  0
  6 48  1  0
  8  7  1  6
  7 53  1  0
  7 54  1  0
  8  9  1  0
  8 29  1  0
  8 41  1  0
  9 10  2  0
  9 11  1  0
 11 12  1  0
 11 28  1  0
 12 13  2  0
 12 21  1  0
 13 14  1  0
 13 27  1  0
 14 15  2  0
 15 16  1  0
 15 26  1  0
 16 17  1  0
 16 21  2  0
 17 18  2  0
 17 25  1  0
 18 19  1  0
 18 24  1  0
 19 20  2  0
 19 23  1  0
 20 21  1  0
 20 22  1  0
 28 29  1  0
 28 39  1  0
 28 40  1  0
 29 30  1  0
 29 38  1  1
 30 31  1  0
 30 36  1  0
 30 37  1  0
 31 32  1  0
 31 35  2  0
 32 33  2  0
 33 34  1  0
 34 35  1  0
 41 42  1  0
 41 47  2  0
 42 43  2  0
 42 52  1  0
 43 44  1  0
 43 45  1  0
 45 46  2  0
 45 51  1  0
 46 47  1  0
 46 50  1  0
 47 48  1  0
 48 49  2  0
M  CHG  1  34  -1
M  END
>  <MODEL>  (43) 
       1

>  <ApoScore>  (43) 
27.4007

$$$$
mol43_score_23.0747
     RDKit          3D

 62 67  0  0  1  0  0  0  0  0999 V2000
    3.8080   -2.4080   25.2400 C   0  0  0  0  0  0  0  0  0  0  0  0
    4.2750   -2.4820   26.6860 C   0  0  0  0  0  0  0  0  0  0  0  0
    5.6260   -2.9960   26.8090 N   0  0  0  0  0  0  0  0  0  0  0  0
    5.7690   -4.3080   27.0540 N   0  0  0  0  0  0  0  0  0  0  0  0
    7.0790   -4.5060   27.0920 C   0  0  0  0  0  0  0  0  0  0  0  0
    7.7840   -3.3160   26.8620 C   0  0  0  0  0  0  0  0  0  0  0  0
    6.8140   -2.3520   26.6320 C   0  0  0  0  0  0  0  0  0  0  0  0
    6.9150   -0.8630   26.3100 C   0  0  0  0  0  0  0  0  0  0  0  0
    7.7400   -0.4990   25.1530 N   0  0  0  0  0  0  0  0  0  0  0  0
    7.2290   -0.0090   23.8920 C   0  0  0  0  0  0  0  0  0  0  0  0
    8.1220   -0.4450   22.6880 C   0  0  2  0  0  0  0  0  0  0  0  0
    7.6160    0.3670   21.5090 C   0  0  0  0  0  0  0  0  0  0  0  0
    7.7700    1.5540   21.2990 O   0  0  0  0  0  0  0  0  0  0  0  0
    6.8640   -0.4610   20.7280 N   0  0  0  0  0  0  0  0  0  0  0  0
    6.0820    0.0760   19.6990 C   0  0  0  0  0  0  0  0  0  0  0  0
    6.4070   -0.2350   18.4090 C   0  0  0  0  0  0  0  0  0  0  0  0
    5.7460    0.2340   17.3280 N   0  0  0  0  0  0  0  0  0  0  0  0
    4.7330    1.0370   17.5590 C   0  0  0  0  0  0  0  0  0  0  0  0
    4.2920    1.4210   18.8590 C   0  0  0  0  0  0  0  0  0  0  0  0
    3.1750    2.2750   19.0400 C   0  0  0  0  0  0  0  0  0  0  0  0
    2.7470    2.6120   20.2930 C   0  0  0  0  0  0  0  0  0  0  0  0
    3.4190    2.1150   21.4340 C   0  0  0  0  0  0  0  0  0  0  0  0
    4.5090    1.2950   21.2900 C   0  0  0  0  0  0  0  0  0  0  0  0
    4.9790    0.9330   19.9870 C   0  0  0  0  0  0  0  0  0  0  0  0
    5.0100    0.9330   22.1840 H   0  0  0  0  0  0  0  0  0  0  0  0
    3.0660    2.3850   22.4250 H   0  0  0  0  0  0  0  0  0  0  0  0
    1.8860    3.2600   20.4240 H   0  0  0  0  0  0  0  0  0  0  0  0
    2.6700    2.6490   18.1550 H   0  0  0  0  0  0  0  0  0  0  0  0
    4.1870    1.4130   16.6930 H   0  0  0  0  0  0  0  0  0  0  0  0
    7.2660   -0.8820   18.2270 H   0  0  0  0  0  0  0  0  0  0  0  0
    6.7540   -1.8230   21.2060 C   0  0  0  0  0  0  0  0  0  0  0  0
    7.8940   -1.9290   22.2240 C   0  0  2  0  0  0  0  0  0  0  0  0
    7.6450   -2.9670   23.3170 C   0  0  0  0  0  0  0  0  0  0  0  0
    8.4670   -2.9720   24.0430 H   0  0  0  0  0  0  0  0  0  0  0  0
    7.5550   -3.9690   22.8840 H   0  0  0  0  0  0  0  0  0  0  0  0
    6.7130   -2.7530   23.8520 H   0  0  0  0  0  0  0  0  0  0  0  0
    8.8110   -2.2170   21.6870 H   0  0  0  0  0  0  0  0  0  0  0  0
    5.7790   -2.0020   21.6810 H   0  0  0  0  0  0  0  0  0  0  0  0
    6.8490   -2.5100   20.3670 H   0  0  0  0  0  0  0  0  0  0  0  0
    9.5650   -0.1490   22.9650 C   0  0  0  0  0  0  0  0  0  0  0  0
   10.5180   -0.0080   21.9560 C   0  0  0  0  0  0  0  0  0  0  0  0
   11.8410    0.1690   22.3200 C   0  0  0  0  0  0  0  0  0  0  0  0
   12.7910    0.2060   21.3800 F   0  0  0  0  0  0  0  0  0  0  0  0
   12.2570    0.2850   23.6400 C   0  0  0  0  0  0  0  0  0  0  0  0
   11.2990    0.1510   24.6170 C   0  0  0  0  0  0  0  0  0  0  0  0
    9.9830   -0.1420   24.2810 C   0  0  0  0  0  0  0  0  0  0  0  0
    9.0720   -0.6830   25.3120 C   0  0  0  0  0  0  0  0  0  0  0  0
    9.5060   -1.2860   26.2750 O   0  0  0  0  0  0  0  0  0  0  0  0
   11.5510    0.2430   25.6570 H   0  0  0  0  0  0  0  0  0  0  0  0
   13.3140    0.4090   23.8670 H   0  0  0  0  0  0  0  0  0  0  0  0
   10.2160   -0.0720   20.9170 H   0  0  0  0  0  0  0  0  0  0  0  0
    6.2080   -0.3810   23.7250 H   0  0  0  0  0  0  0  0  0  0  0  0
    7.1980    1.0920   23.8890 H   0  0  0  0  0  0  0  0  0  0  0  0
    5.9250   -0.4200   26.1730 H   0  0  0  0  0  0  0  0  0  0  0  0
    7.3740   -0.3610   27.1690 H   0  0  0  0  0  0  0  0  0  0  0  0
    8.8510   -3.1770   26.8810 H   0  0  0  0  0  0  0  0  0  0  0  0
    7.4730   -5.5000   27.2640 H   0  0  0  0  0  0  0  0  0  0  0  0
    3.6530   -3.1680   27.2610 H   0  0  0  0  0  0  0  0  0  0  0  0
    4.2120   -1.5050   27.1730 H   0  0  0  0  0  0  0  0  0  0  0  0
    3.8620   -3.3980   24.7820 H   0  0  0  0  0  0  0  0  0  0  0  0
    4.4360   -1.7260   24.6550 H   0  0  0  0  0  0  0  0  0  0  0  0
    2.7750   -2.0540   25.2050 H   0  0  0  0  0  0  0  0  0  0  0  0
  1  2  1  0
  1 60  1  0
  1 61  1  0
  1 62  1  0
  2  3  1  0
  2 58  1  0
  2 59  1  0
  3  4  1  0
  3  7  1  0
  4  5  2  0
  5  6  1  0
  5 57  1  0
  6  7  2  0
  6 56  1  0
  7  8  1  0
  8  9  1  0
  8 54  1  0
  8 55  1  0
  9 10  1  0
  9 47  1  0
 11 10  1  1
 10 52  1  0
 10 53  1  0
 11 12  1  0
 11 32  1  0
 11 40  1  0
 12 13  2  0
 12 14  1  0
 14 15  1  0
 14 31  1  0
 15 16  2  0
 15 24  1  0
 16 17  1  0
 16 30  1  0
 17 18  2  0
 18 19  1  0
 18 29  1  0
 19 20  1  0
 19 24  2  0
 20 21  2  0
 20 28  1  0
 21 22  1  0
 21 27  1  0
 22 23  2  0
 22 26  1  0
 23 24  1  0
 23 25  1  0
 31 32  1  0
 31 38  1  0
 31 39  1  0
 32 33  1  0
 32 37  1  6
 33 34  1  0
 33 35  1  0
 33 36  1  0
 40 41  2  0
 40 46  1  0
 41 42  1  0
 41 51  1  0
 42 43  1  0
 42 44  2  0
 44 45  1  0
 44 50  1  0
 45 46  2  0
 45 49  1  0
 46 47  1  0
 47 48  2  0
M  END
>  <MODEL>  (44) 
       1

>  <ApoScore>  (44) 
23.0747

$$$$
mol44_score_22.4396
     RDKit          3D

 56 60  0  0  1  0  0  0  0  0999 V2000
    7.0630    3.7180   21.1910 C   0  0  0  0  0  0  0  0  0  0  0  0
    7.3970    3.2760   22.5330 N   0  0  0  0  0  0  0  0  0  0  0  0
    8.6860    3.3670   22.9560 C   0  0  0  0  0  0  0  0  0  0  0  0
    9.5180    4.0410   22.3710 O   0  0  0  0  0  0  0  0  0  0  0  0
    9.0440    2.5630   24.2040 C   0  0  0  0  0  0  0  0  0  0  0  0
    9.4210    1.2040   23.8460 N   0  0  0  0  0  0  0  0  0  0  0  0
    8.3760    0.1710   23.7760 C   0  0  0  0  0  0  0  0  0  0  0  0
    8.5110   -0.7540   22.4940 C   0  0  2  0  0  0  0  0  0  0  0  0
    7.9890    0.0550   21.2680 C   0  0  0  0  0  0  0  0  0  0  0  0
    8.5270    1.0010   20.7230 O   0  0  0  0  0  0  0  0  0  0  0  0
    6.7450   -0.4120   20.9260 N   0  0  0  0  0  0  0  0  0  0  0  0
    6.0310    0.1520   19.8380 C   0  0  0  0  0  0  0  0  0  0  0  0
    6.4510   -0.0660   18.5470 C   0  0  0  0  0  0  0  0  0  0  0  0
    5.8300    0.4300   17.4550 N   0  0  0  0  0  0  0  0  0  0  0  0
    4.7750    1.1830   17.6470 C   0  0  0  0  0  0  0  0  0  0  0  0
    4.2470    1.5110   18.9270 C   0  0  0  0  0  0  0  0  0  0  0  0
    3.1210    2.3660   19.0790 C   0  0  0  0  0  0  0  0  0  0  0  0
    2.6510    2.6750   20.3270 C   0  0  0  0  0  0  0  0  0  0  0  0
    3.2890    2.1610   21.4750 C   0  0  0  0  0  0  0  0  0  0  0  0
    4.3860    1.3380   21.3510 C   0  0  0  0  0  0  0  0  0  0  0  0
    4.8860    0.9750   20.0700 C   0  0  0  0  0  0  0  0  0  0  0  0
    4.8850    0.9810   22.2460 H   0  0  0  0  0  0  0  0  0  0  0  0
    2.9150    2.4170   22.4620 H   0  0  0  0  0  0  0  0  0  0  0  0
    1.7910    3.3290   20.4420 H   0  0  0  0  0  0  0  0  0  0  0  0
    2.6530    2.7730   18.1860 H   0  0  0  0  0  0  0  0  0  0  0  0
    4.2870    1.5760   16.7570 H   0  0  0  0  0  0  0  0  0  0  0  0
    7.3290   -0.6790   18.3610 H   0  0  0  0  0  0  0  0  0  0  0  0
    6.2320   -1.4250   21.8210 C   0  0  0  0  0  0  0  0  0  0  0  0
    7.5020   -1.9440   22.5200 C   0  0  2  0  0  0  0  0  0  0  0  0
    7.1280   -2.5690   23.8580 C   0  0  0  0  0  0  0  0  0  0  0  0
    8.5170   -3.2720   24.7360 Cl  0  0  0  0  0  0  0  0  0  0  0  0
    6.4180   -3.3830   23.6940 H   0  0  0  0  0  0  0  0  0  0  0  0
    6.6650   -1.8400   24.5270 H   0  0  0  0  0  0  0  0  0  0  0  0
    7.8830   -2.7460   21.8950 H   0  0  0  0  0  0  0  0  0  0  0  0
    5.7170   -2.2130   21.2630 H   0  0  0  0  0  0  0  0  0  0  0  0
    5.5170   -1.0080   22.5450 H   0  0  0  0  0  0  0  0  0  0  0  0
    9.9220   -1.1510   22.3140 C   0  0  0  0  0  0  0  0  0  0  0  0
   10.2510   -2.3900   21.5060 C   0  0  0  0  0  0  0  0  0  0  0  0
   11.6820   -2.6290   21.2150 C   0  0  0  0  0  0  0  0  0  0  0  0
   12.4160   -4.4800   19.1200 Cl  0  0  0  0  0  0  0  0  0  0  0  0
   11.6700   -2.3540   21.3850 C   0  0  0  0  0  0  0  0  0  0  0  0
   12.2290   -0.7140   22.3550 C   0  0  0  0  0  0  0  0  0  0  0  0
   11.0380   -0.2710   22.7800 C   0  0  0  0  0  0  0  0  0  0  0  0
   10.7510    0.9840   23.5700 C   0  0  0  0  0  0  0  0  0  0  0  0
   11.6240    1.7640   23.9170 O   0  0  0  0  0  0  0  0  0  0  0  0
   13.2360   -0.3690   22.3000 H   0  0  0  0  0  0  0  0  0  0  0  0
   13.3030   -4.0790   19.9530 H   0  0  0  0  0  0  0  0  0  0  0  0
    9.5220   -3.0790   21.1190 H   0  0  0  0  0  0  0  0  0  0  0  0
    7.4010    0.6610   23.7660 H   0  0  0  0  0  0  0  0  0  0  0  0
    8.4450   -0.4640   24.6670 H   0  0  0  0  0  0  0  0  0  0  0  0
    9.9250    3.0350   24.6440 H   0  0  0  0  0  0  0  0  0  0  0  0
    8.2230    2.5470   24.9270 H   0  0  0  0  0  0  0  0  0  0  0  0
    6.7720    2.6060   22.9550 H   0  0  0  0  0  0  0  0  0  0  0  0
    6.0100    3.4980   21.0020 H   0  0  0  0  0  0  0  0  0  0  0  0
    7.6800    3.1740   20.4660 H   0  0  0  0  0  0  0  0  0  0  0  0
    7.2340    4.7930   21.0970 H   0  0  0  0  0  0  0  0  0  0  0  0
  1  2  1  0
  1 54  1  0
  1 55  1  0
  1 56  1  0
  2  3  1  0
  2 53  1  0
  3  4  2  0
  3  5  1  0
  5  6  1  0
  5 51  1  0
  5 52  1  0
  6  7  1  0
  6 44  1  0
  8  7  1  1
  7 49  1  0
  7 50  1  0
  8  9  1  0
  8 29  1  0
  8 37  1  0
  9 10  2  0
  9 11  1  0
 11 12  1  0
 11 28  1  0
 12 13  2  0
 12 21  1  0
 13 14  1  0
 13 27  1  0
 14 15  2  0
 15 16  1  0
 15 26  1  0
 16 17  1  0
 16 21  2  0
 17 18  2  0
 17 25  1  0
 18 19  1  0
 18 24  1  0
 19 20  2  0
 19 23  1  0
 20 21  1  0
 20 22  1  0
 28 29  1  0
 28 35  1  0
 28 36  1  0
 29 30  1  0
 29 34  1  6
 30 31  1  0
 30 32  1  0
 30 33  1  0
 37 38  1  0
 37 43  2  0
 38 39  2  0
 38 48  1  0
 39 40  1  0
 39 41  1  0
 41 42  2  0
 41 47  1  0
 42 43  1  0
 42 46  1  0
 43 44  1  0
 44 45  2  0
M  END
>  <MODEL>  (45) 
       1

>  <ApoScore>  (45) 
22.4396

$$$$
mol45_score_22.5915
     RDKit          3D

 60 64  0  0  1  0  0  0  0  0999 V2000
    6.6360    4.2420   21.4390 C   0  0  0  0  0  0  0  0  0  0  0  0
    7.6190    3.6770   22.3470 N   0  0  0  0  0  0  0  0  0  0  0  0
    7.1710    3.1340   23.5130 C   0  0  0  0  0  0  0  0  0  0  0  0
    5.9740    3.0600   23.7690 O   0  0  0  0  0  0  0  0  0  0  0  0
    8.2090    2.6600   24.5270 C   0  0  0  0  0  0  0  0  0  0  0  0
    8.7950    1.3790   24.1610 N   0  0  0  0  0  0  0  0  0  0  0  0
    7.9400    0.2220   23.9160 C   0  0  0  0  0  0  0  0  0  0  0  0
    8.4540   -0.6290   22.7180 C   0  0  2  0  0  0  0  0  0  0  0  0
    8.1090    0.1170   21.4050 C   0  0  0  0  0  0  0  0  0  0  0  0
    8.6940    1.0540   20.9000 O   0  0  0  0  0  0  0  0  0  0  0  0
    6.9470   -0.4330   20.9000 N   0  0  0  0  0  0  0  0  0  0  0  0
    6.2400    0.1660   19.8270 C   0  0  0  0  0  0  0  0  0  0  0  0
    6.6530   -0.0390   18.5340 C   0  0  0  0  0  0  0  0  0  0  0  0
    5.9900    0.4150   17.4440 N   0  0  0  0  0  0  0  0  0  0  0  0
    4.8860    1.0960   17.6400 C   0  0  0  0  0  0  0  0  0  0  0  0
    4.3730    1.4300   18.9250 C   0  0  0  0  0  0  0  0  0  0  0  0
    3.2140    2.2360   19.0920 C   0  0  0  0  0  0  0  0  0  0  0  0
    2.7850    2.5890   20.3440 C   0  0  0  0  0  0  0  0  0  0  0  0
    3.4960    2.1560   21.4860 C   0  0  0  0  0  0  0  0  0  0  0  0
    4.6090    1.3580   21.3480 C   0  0  0  0  0  0  0  0  0  0  0  0
    5.0730    0.9620   20.0630 C   0  0  0  0  0  0  0  0  0  0  0  0
    5.1810    1.0920   22.2310 H   0  0  0  0  0  0  0  0  0  0  0  0
    3.1830    2.4720   22.4780 H   0  0  0  0  0  0  0  0  0  0  0  0
    1.9070    3.2190   20.4640 H   0  0  0  0  0  0  0  0  0  0  0  0
    2.6880    2.5800   18.2050 H   0  0  0  0  0  0  0  0  0  0  0  0
    4.3430    1.4320   16.7560 H   0  0  0  0  0  0  0  0  0  0  0  0
    7.5580   -0.6100   18.3450 H   0  0  0  0  0  0  0  0  0  0  0  0
    6.4230   -1.5320   21.6920 C   0  0  0  0  0  0  0  0  0  0  0  0
    7.6340   -1.9400   22.5390 C   0  0  2  0  0  0  0  0  0  0  0  0
    7.2850   -2.6600   23.8320 C   0  0  0  0  0  0  0  0  0  0  0  0
    8.4960   -2.9060   24.5060 O   0  0  0  0  0  0  0  0  0  0  0  0
    8.3310   -3.3760   25.8180 C   0  0  0  0  0  0  0  0  0  0  0  0
    7.7800   -4.3280   25.8450 H   0  0  0  0  0  0  0  0  0  0  0  0
    7.7950   -2.6530   26.4540 H   0  0  0  0  0  0  0  0  0  0  0  0
    9.3320   -3.5280   26.2300 H   0  0  0  0  0  0  0  0  0  0  0  0
    6.7490   -3.6050   23.6360 H   0  0  0  0  0  0  0  0  0  0  0  0
    6.6180   -2.0230   24.4380 H   0  0  0  0  0  0  0  0  0  0  0  0
    8.2510   -2.6230   21.9480 H   0  0  0  0  0  0  0  0  0  0  0  0
    5.5800   -1.2110   22.3260 H   0  0  0  0  0  0  0  0  0  0  0  0
    6.0580   -2.3340   21.0430 H   0  0  0  0  0  0  0  0  0  0  0  0
    9.9370   -0.8520   22.9240 C   0  0  0  0  0  0  0  0  0  0  0  0
   10.6320   -1.7930   22.1470 C   0  0  0  0  0  0  0  0  0  0  0  0
   11.9990   -1.9520   22.2920 C   0  0  0  0  0  0  0  0  0  0  0  0
   12.8350   -3.0740   21.2570 Cl  0  0  0  0  0  0  0  0  0  0  0  0
   12.7350   -1.2160   23.2250 C   0  0  0  0  0  0  0  0  0  0  0  0
   12.0630   -0.2590   23.9600 C   0  0  0  0  0  0  0  0  0  0  0  0
   10.6930   -0.0710   23.8080 C   0  0  0  0  0  0  0  0  0  0  0  0
   10.1270    1.1830   24.3990 C   0  0  0  0  0  0  0  0  0  0  0  0
   10.8380    1.9870   24.9850 O   0  0  0  0  0  0  0  0  0  0  0  0
   12.5750    0.4610   24.5940 H   0  0  0  0  0  0  0  0  0  0  0  0
   13.8120   -1.3410   23.3090 H   0  0  0  0  0  0  0  0  0  0  0  0
   10.1380   -2.3440   21.3560 H   0  0  0  0  0  0  0  0  0  0  0  0
    6.9280    0.5870   23.7260 H   0  0  0  0  0  0  0  0  0  0  0  0
    7.9120   -0.4170   24.8080 H   0  0  0  0  0  0  0  0  0  0  0  0
    7.7010    2.6430   25.5040 H   0  0  0  0  0  0  0  0  0  0  0  0
    9.0330    3.3780   24.5960 H   0  0  0  0  0  0  0  0  0  0  0  0
    8.5190    3.4190   21.9680 H   0  0  0  0  0  0  0  0  0  0  0  0
    7.0980    4.9720   20.7690 H   0  0  0  0  0  0  0  0  0  0  0  0
    6.1310    3.4590   20.8560 H   0  0  0  0  0  0  0  0  0  0  0  0
    5.8770    4.7470   22.0400 H   0  0  0  0  0  0  0  0  0  0  0  0
  1  2  1  0
  1 58  1  0
  1 59  1  0
  1 60  1  0
  2  3  1  0
  2 57  1  0
  3  4  2  0
  3  5  1  0
  5  6  1  0
  5 55  1  0
  5 56  1  0
  6  7  1  0
  6 48  1  0
  8  7  1  1
  7 53  1  0
  7 54  1  0
  8  9  1  0
  8 29  1  0
  8 41  1  0
  9 10  2  0
  9 11  1  0
 11 12  1  0
 11 28  1  0
 12 13  2  0
 12 21  1  0
 13 14  1  0
 13 27  1  0
 14 15  2  0
 15 16  1  0
 15 26  1  0
 16 17  1  0
 16 21  2  0
 17 18  2  0
 17 25  1  0
 18 19  1  0
 18 24  1  0
 19 20  2  0
 19 23  1  0
 20 21  1  0
 20 22  1  0
 28 29  1  0
 28 39  1  0
 28 40  1  0
 29 30  1  0
 29 38  1  6
 30 31  1  0
 30 36  1  0
 30 37  1  0
 31 32  1  0
 32 33  1  0
 32 34  1  0
 32 35  1  0
 41 42  1  0
 41 47  2  0
 42 43  2  0
 42 52  1  0
 43 44  1  0
 43 45  1  0
 45 46  2  0
 45 51  1  0
 46 47  1  0
 46 50  1  0
 47 48  1  0
 48 49  2  0
M  END
>  <MODEL>  (46) 
       1

>  <ApoScore>  (46) 
22.5915

$$$$
mol46_score_28.9573
     RDKit          3D

 64 68  0  0  1  0  0  0  0  0999 V2000
   10.7820    3.8490   23.4840 C   0  0  0  0  0  0  0  0  0  0  0  0
   10.3820    2.5800   22.7390 C   0  0  0  0  0  0  0  0  0  0  0  0
    9.8730    1.3760   23.9560 S   0  0  0  0  0  0  0  0  0  0  0  0
    8.5710    1.7740   24.4680 O   0  0  0  0  0  0  0  0  0  0  0  0
   10.9930    1.1650   24.8580 O   0  0  0  0  0  0  0  0  0  0  0  0
    9.6400   -0.0150   23.0790 N   0  0  0  0  0  0  0  0  0  0  0  0
    8.3140   -0.3790   22.6150 C   0  0  1  0  0  0  0  0  0  0  0  0
    7.7850    0.4510   21.4390 C   0  0  0  0  0  0  0  0  0  0  0  0
    6.8280   -0.4510   20.8400 N   0  0  0  0  0  0  0  0  0  0  0  0
    6.0420   -0.0170   19.7450 C   0  0  0  0  0  0  0  0  0  0  0  0
    6.3790   -0.3350   18.4540 C   0  0  0  0  0  0  0  0  0  0  0  0
    5.7530    0.1720   17.3600 N   0  0  0  0  0  0  0  0  0  0  0  0
    4.7640    1.0110   17.5580 C   0  0  0  0  0  0  0  0  0  0  0  0
    4.2940    1.4020   18.8460 C   0  0  0  0  0  0  0  0  0  0  0  0
    3.1980    2.2890   19.0230 C   0  0  0  0  0  0  0  0  0  0  0  0
    2.7790    2.6320   20.2810 C   0  0  0  0  0  0  0  0  0  0  0  0
    3.4410    2.1190   21.4190 C   0  0  0  0  0  0  0  0  0  0  0  0
    4.5060    1.2640   21.2720 C   0  0  0  0  0  0  0  0  0  0  0  0
    4.9550    0.8830   19.9790 C   0  0  0  0  0  0  0  0  0  0  0  0
    5.0110    0.8670   22.1450 H   0  0  0  0  0  0  0  0  0  0  0  0
    3.1100    2.4070   22.4130 H   0  0  0  0  0  0  0  0  0  0  0  0
    1.9340    3.3020   20.4140 H   0  0  0  0  0  0  0  0  0  0  0  0
    2.7020    2.6870   18.1420 H   0  0  0  0  0  0  0  0  0  0  0  0
    4.2800    1.4230   16.6730 H   0  0  0  0  0  0  0  0  0  0  0  0
    7.2020   -1.0190   18.2550 H   0  0  0  0  0  0  0  0  0  0  0  0
    7.0240   -1.7810   21.1660 C   0  0  0  0  0  0  0  0  0  0  0  0
    6.3600   -2.6930   20.7170 O   0  0  0  0  0  0  0  0  0  0  0  0
    8.1730   -1.8720   22.1900 C   0  0  1  0  0  0  0  0  0  0  0  0
    9.4540   -2.4330   21.4960 C   0  0  0  0  0  0  0  0  0  0  0  0
   10.5500   -2.7070   22.4360 N   0  0  0  0  0  0  0  0  0  0  0  0
   11.9670   -2.5060   22.1270 C   0  0  0  0  0  0  0  0  0  0  0  0
   12.5610   -1.3070   22.8890 C   0  0  0  0  0  0  0  0  0  0  0  0
   12.6810   -1.3380   24.0940 O   0  0  0  0  0  0  0  0  0  0  0  0
   12.8430   -0.1810   22.1390 N   0  0  0  0  0  0  0  0  0  0  0  0
   13.5860    0.9120   22.7720 C   0  0  0  0  0  0  0  0  0  0  0  0
   13.2110    0.9950   23.7980 H   0  0  0  0  0  0  0  0  0  0  0  0
   13.3980    1.8500   22.2340 H   0  0  0  0  0  0  0  0  0  0  0  0
   14.6680    0.7360   22.7730 H   0  0  0  0  0  0  0  0  0  0  0  0
   13.0750   -0.3880   21.1740 H   0  0  0  0  0  0  0  0  0  0  0  0
   12.1190   -2.4210   21.0510 H   0  0  0  0  0  0  0  0  0  0  0  0
   12.5010   -3.3860   22.5000 H   0  0  0  0  0  0  0  0  0  0  0  0
   10.3040   -3.4560   23.5580 C   0  0  0  0  0  0  0  0  0  0  0  0
   11.1820   -4.0290   24.1870 O   0  0  0  0  0  0  0  0  0  0  0  0
    8.8800   -3.5160   24.0000 C   0  0  0  0  0  0  0  0  0  0  0  0
    8.6190   -4.2990   25.1220 C   0  0  0  0  0  0  0  0  0  0  0  0
    7.3400   -4.3930   25.6310 C   0  0  0  0  0  0  0  0  0  0  0  0
    6.3180   -3.7070   24.9750 C   0  0  0  0  0  0  0  0  0  0  0  0
    4.6950   -3.8670   25.5860 Cl  0  0  0  0  0  0  0  0  0  0  0  0
    6.5580   -2.9230   23.8560 C   0  0  0  0  0  0  0  0  0  0  0  0
    7.8640   -2.7940   23.3590 C   0  0  0  0  0  0  0  0  0  0  0  0
    5.7190   -2.4500   23.3550 H   0  0  0  0  0  0  0  0  0  0  0  0
    7.1250   -5.0170   26.4940 H   0  0  0  0  0  0  0  0  0  0  0  0
    9.4520   -4.8270   25.5720 H   0  0  0  0  0  0  0  0  0  0  0  0
    9.7970   -1.7360   20.7260 H   0  0  0  0  0  0  0  0  0  0  0  0
    9.1490   -3.3650   21.0060 H   0  0  0  0  0  0  0  0  0  0  0  0
    7.2940    1.3720   21.7720 H   0  0  0  0  0  0  0  0  0  0  0  0
    8.5750    0.7290   20.7200 H   0  0  0  0  0  0  0  0  0  0  0  0
    7.6350   -0.2300   23.4580 H   0  0  0  0  0  0  0  0  0  0  0  0
   10.3990   -0.2100   22.4310 H   0  0  0  0  0  0  0  0  0  0  0  0
   11.2220    2.1390   22.1910 H   0  0  0  0  0  0  0  0  0  0  0  0
    9.5460    2.7220   22.0480 H   0  0  0  0  0  0  0  0  0  0  0  0
   11.6800    3.6590   24.0810 H   0  0  0  0  0  0  0  0  0  0  0  0
   10.9830    4.6650   22.7830 H   0  0  0  0  0  0  0  0  0  0  0  0
    9.9760    4.1440   24.1640 H   0  0  0  0  0  0  0  0  0  0  0  0
  1  2  1  0
  1 62  1  0
  1 63  1  0
  1 64  1  0
  2  3  1  0
  2 60  1  0
  2 61  1  0
  3  4  2  0
  3  5  2  0
  3  6  1  0
  6  7  1  0
  6 59  1  0
  7  8  1  0
  7 28  1  0
  7 58  1  1
  8  9  1  0
  8 56  1  0
  8 57  1  0
  9 10  1  0
  9 26  1  0
 10 11  2  0
 10 19  1  0
 11 12  1  0
 11 25  1  0
 12 13  2  0
 13 14  1  0
 13 24  1  0
 14 15  1  0
 14 19  2  0
 15 16  2  0
 15 23  1  0
 16 17  1  0
 16 22  1  0
 17 18  2  0
 17 21  1  0
 18 19  1  0
 18 20  1  0
 26 27  2  0
 28 26  1  0
 28 29  1  6
 28 50  1  0
 29 30  1  0
 29 54  1  0
 29 55  1  0
 30 31  1  0
 30 42  1  0
 31 32  1  0
 31 40  1  0
 31 41  1  0
 32 33  2  0
 32 34  1  0
 34 35  1  0
 34 39  1  0
 35 36  1  0
 35 37  1  0
 35 38  1  0
 42 43  2  0
 42 44  1  0
 44 45  2  0
 44 50  1  0
 45 46  1  0
 45 53  1  0
 46 47  2  0
 46 52  1  0
 47 48  1  0
 47 49  1  0
 49 50  2  0
 49 51  1  0
M  END
>  <MODEL>  (47) 
       1

>  <ApoScore>  (47) 
28.9573

$$$$
mol47_score_22.6330
     RDKit          3D

 56 60  0  0  1  0  0  0  0  0999 V2000
    6.7370    4.4420   21.3010 C   0  0  0  0  0  0  0  0  0  0  0  0
    7.6160    4.0360   22.3790 N   0  0  0  0  0  0  0  0  0  0  0  0
    7.0660    3.3700   23.4210 C   0  0  0  0  0  0  0  0  0  0  0  0
    5.8530    3.2350   23.5330 O   0  0  0  0  0  0  0  0  0  0  0  0
    8.0030    2.8060   24.4900 C   0  0  0  0  0  0  0  0  0  0  0  0
    8.7440    1.6370   24.0660 N   0  0  0  0  0  0  0  0  0  0  0  0
    8.0290    0.3790   23.9290 C   0  0  0  0  0  0  0  0  0  0  0  0
    8.4440   -0.3840   22.6540 C   0  0  2  0  0  0  0  0  0  0  0  0
    7.9340    0.3410   21.3820 C   0  0  0  0  0  0  0  0  0  0  0  0
    8.3450    1.3760   20.9080 O   0  0  0  0  0  0  0  0  0  0  0  0
    6.9200   -0.4080   20.8300 N   0  0  0  0  0  0  0  0  0  0  0  0
    6.1390    0.1100   19.7630 C   0  0  0  0  0  0  0  0  0  0  0  0
    6.4560   -0.2100   18.4670 C   0  0  0  0  0  0  0  0  0  0  0  0
    5.7720    0.2340   17.3870 N   0  0  0  0  0  0  0  0  0  0  0  0
    4.7440    1.0190   17.5940 C   0  0  0  0  0  0  0  0  0  0  0  0
    4.2960    1.4230   18.8840 C   0  0  0  0  0  0  0  0  0  0  0  0
    3.1750    2.2790   19.0630 C   0  0  0  0  0  0  0  0  0  0  0  0
    2.7670    2.6400   20.3200 C   0  0  0  0  0  0  0  0  0  0  0  0
    3.4630    2.1610   21.4520 C   0  0  0  0  0  0  0  0  0  0  0  0
    4.5530    1.3350   21.3040 C   0  0  0  0  0  0  0  0  0  0  0  0
    5.0080    0.9500   20.0120 C   0  0  0  0  0  0  0  0  0  0  0  0
    5.0840    0.9830   22.1830 H   0  0  0  0  0  0  0  0  0  0  0  0
    3.1560    2.4620   22.4480 H   0  0  0  0  0  0  0  0  0  0  0  0
    1.9170    3.3050   20.4490 H   0  0  0  0  0  0  0  0  0  0  0  0
    2.6600    2.6440   18.1780 H   0  0  0  0  0  0  0  0  0  0  0  0
    4.2130    1.3780   16.7130 H   0  0  0  0  0  0  0  0  0  0  0  0
    7.3020   -0.8600   18.2570 H   0  0  0  0  0  0  0  0  0  0  0  0
    6.5830   -1.6040   21.5730 C   0  0  0  0  0  0  0  0  0  0  0  0
    7.7640   -1.7910   22.5470 C   0  0  2  0  0  0  0  0  0  0  0  0
    7.3480   -2.4690   23.8540 C   0  0  0  0  0  0  0  0  0  0  0  0
    6.9350   -3.4640   23.6600 H   0  0  0  0  0  0  0  0  0  0  0  0
    6.5750   -1.8880   24.3670 H   0  0  0  0  0  0  0  0  0  0  0  0
    8.1900   -2.5910   24.5460 H   0  0  0  0  0  0  0  0  0  0  0  0
    8.4930   -2.4410   22.0610 H   0  0  0  0  0  0  0  0  0  0  0  0
    5.6400   -1.4790   22.1240 H   0  0  0  0  0  0  0  0  0  0  0  0
    6.4580   -2.4540   20.8920 H   0  0  0  0  0  0  0  0  0  0  0  0
    9.9540   -0.4030   22.6110 C   0  0  0  0  0  0  0  0  0  0  0  0
   10.5830   -1.2720   21.7260 C   0  0  0  0  0  0  0  0  0  0  0  0
   11.9480   -1.2570   21.5990 C   0  0  0  0  0  0  0  0  0  0  0  0
   12.4390   -2.0850   20.6600 F   0  0  0  0  0  0  0  0  0  0  0  0
   12.7520   -0.4070   22.3570 C   0  0  0  0  0  0  0  0  0  0  0  0
   12.1280    0.4990   23.1910 C   0  0  0  0  0  0  0  0  0  0  0  0
   10.7400    0.5400   23.2870 C   0  0  0  0  0  0  0  0  0  0  0  0
   10.1140    1.6830   24.0230 C   0  0  0  0  0  0  0  0  0  0  0  0
   10.7720    2.5990   24.5040 O   0  0  0  0  0  0  0  0  0  0  0  0
   12.7080    1.2200   23.7520 H   0  0  0  0  0  0  0  0  0  0  0  0
   13.8300   -0.4230   22.2950 H   0  0  0  0  0  0  0  0  0  0  0  0
   10.0380   -1.9550   21.0880 H   0  0  0  0  0  0  0  0  0  0  0  0
    6.9620    0.6140   23.8810 H   0  0  0  0  0  0  0  0  0  0  0  0
    8.2240   -0.2710   24.7980 H   0  0  0  0  0  0  0  0  0  0  0  0
    7.3560    2.5480   25.3360 H   0  0  0  0  0  0  0  0  0  0  0  0
    8.7630    3.5210   24.8140 H   0  0  0  0  0  0  0  0  0  0  0  0
    8.6120    3.9840   22.2390 H   0  0  0  0  0  0  0  0  0  0  0  0
    7.2880    4.9420   20.5140 H   0  0  0  0  0  0  0  0  0  0  0  0
    6.2110    3.5760   20.8920 H   0  0  0  0  0  0  0  0  0  0  0  0
    5.9860    5.1350   21.6780 H   0  0  0  0  0  0  0  0  0  0  0  0
  1  2  1  0
  1 54  1  0
  1 55  1  0
  1 56  1  0
  2  3  1  0
  2 53  1  0
  3  4  2  0
  3  5  1  0
  5  6  1  0
  5 51  1  0
  5 52  1  0
  6  7  1  0
  6 44  1  0
  8  7  1  1
  7 49  1  0
  7 50  1  0
  8  9  1  0
  8 29  1  0
  8 37  1  0
  9 10  2  0
  9 11  1  0
 11 12  1  0
 11 28  1  0
 12 13  2  0
 12 21  1  0
 13 14  1  0
 13 27  1  0
 14 15  2  0
 15 16  1  0
 15 26  1  0
 16 17  1  0
 16 21  2  0
 17 18  2  0
 17 25  1  0
 18 19  1  0
 18 24  1  0
 19 20  2  0
 19 23  1  0
 20 21  1  0
 20 22  1  0
 28 29  1  0
 28 35  1  0
 28 36  1  0
 29 30  1  0
 29 34  1  6
 30 31  1  0
 30 32  1  0
 30 33  1  0
 37 38  1  0
 37 43  2  0
 38 39  2  0
 38 48  1  0
 39 40  1  0
 39 41  1  0
 41 42  2  0
 41 47  1  0
 42 43  1  0
 42 46  1  0
 43 44  1  0
 44 45  2  0
M  END
>  <MODEL>  (48) 
       1

>  <ApoScore>  (48) 
22.6330

$$$$
mol48_score_15.9754
     RDKit          3D

 41 43  0  0  1  0  0  0  0  0999 V2000
   10.9110   -2.4510   23.7830 C   0  0  0  0  0  0  0  0  0  0  0  0
   10.0170   -1.2720   23.4550 C   0  0  1  0  0  0  0  0  0  0  0  0
    8.5430   -1.5710   23.7530 C   0  0  0  0  0  0  0  0  0  0  0  0
    7.6640   -0.3150   23.8330 C   0  0  0  0  0  0  0  0  0  0  0  0
    8.0150    0.7500   22.8950 N   0  0  0  0  0  0  0  0  0  0  0  0
    7.8630    0.6370   21.5250 C   0  0  0  0  0  0  0  0  0  0  0  0
    8.4390    1.3990   20.7680 O   0  0  0  0  0  0  0  0  0  0  0  0
    6.9380   -0.4470   20.9210 C   0  0  0  0  0  0  0  0  0  0  0  0
    6.1110    0.0850   19.7700 C   0  0  0  0  0  0  0  0  0  0  0  0
    6.4260   -0.2070   18.4660 C   0  0  0  0  0  0  0  0  0  0  0  0
    5.7580    0.2430   17.3720 N   0  0  0  0  0  0  0  0  0  0  0  0
    4.7330    1.0330   17.5770 C   0  0  0  0  0  0  0  0  0  0  0  0
    4.2840    1.4230   18.8700 C   0  0  0  0  0  0  0  0  0  0  0  0
    3.1640    2.2750   19.0470 C   0  0  0  0  0  0  0  0  0  0  0  0
    2.7620    2.6440   20.3020 C   0  0  0  0  0  0  0  0  0  0  0  0
    3.4630    2.1680   21.4320 C   0  0  0  0  0  0  0  0  0  0  0  0
    4.5480    1.3380   21.2870 C   0  0  0  0  0  0  0  0  0  0  0  0
    4.9920    0.9420   19.9970 C   0  0  0  0  0  0  0  0  0  0  0  0
    5.0720    0.9890   22.1710 H   0  0  0  0  0  0  0  0  0  0  0  0
    3.1370    2.4630   22.4240 H   0  0  0  0  0  0  0  0  0  0  0  0
    1.9100    3.3050   20.4360 H   0  0  0  0  0  0  0  0  0  0  0  0
    2.6400    2.6410   18.1670 H   0  0  0  0  0  0  0  0  0  0  0  0
    4.1990    1.4000   16.6990 H   0  0  0  0  0  0  0  0  0  0  0  0
    7.2730   -0.8560   18.2440 H   0  0  0  0  0  0  0  0  0  0  0  0
    7.5900   -1.2390   20.5270 H   0  0  0  0  0  0  0  0  0  0  0  0
    6.2860   -0.9120   21.6680 H   0  0  0  0  0  0  0  0  0  0  0  0
    9.0460    1.6760   23.3760 C   0  0  0  0  0  0  0  0  0  0  0  0
   10.4540    1.0770   23.4660 C   0  0  0  0  0  0  0  0  0  0  0  0
   10.4970   -0.1430   24.1770 O   0  0  0  0  0  0  0  0  0  0  0  0
   10.8640    0.9350   22.4560 H   0  0  0  0  0  0  0  0  0  0  0  0
   11.1270    1.7680   23.9970 H   0  0  0  0  0  0  0  0  0  0  0  0
    8.7540    1.9960   24.3800 H   0  0  0  0  0  0  0  0  0  0  0  0
    9.0630    2.5590   22.7330 H   0  0  0  0  0  0  0  0  0  0  0  0
    6.6080   -0.5750   23.7200 H   0  0  0  0  0  0  0  0  0  0  0  0
    7.7560    0.1110   24.8330 H   0  0  0  0  0  0  0  0  0  0  0  0
    8.4670   -2.1270   24.6970 H   0  0  0  0  0  0  0  0  0  0  0  0
    8.1660   -2.2440   22.9730 H   0  0  0  0  0  0  0  0  0  0  0  0
   10.1180   -1.0530   22.3870 H   0  0  0  0  0  0  0  0  0  0  0  0
   10.5950   -3.3350   23.2210 H   0  0  0  0  0  0  0  0  0  0  0  0
   11.9460   -2.2270   23.5150 H   0  0  0  0  0  0  0  0  0  0  0  0
   10.8700   -2.6770   24.8510 H   0  0  0  0  0  0  0  0  0  0  0  0
  1  2  1  0
  1 39  1  0
  1 40  1  0
  1 41  1  0
  2  3  1  0
  2 29  1  0
  2 38  1  6
  3  4  1  0
  3 36  1  0
  3 37  1  0
  4  5  1  0
  4 34  1  0
  4 35  1  0
  5  6  1  0
  5 27  1  0
  6  7  2  0
  6  8  1  0
  8  9  1  0
  8 25  1  0
  8 26  1  0
  9 10  2  0
  9 18  1  0
 10 11  1  0
 10 24  1  0
 11 12  2  0
 12 13  1  0
 12 23  1  0
 13 14  1  0
 13 18  2  0
 14 15  2  0
 14 22  1  0
 15 16  1  0
 15 21  1  0
 16 17  2  0
 16 20  1  0
 17 18  1  0
 17 19  1  0
 27 28  1  0
 27 32  1  0
 27 33  1  0
 28 29  1  0
 28 30  1  0
 28 31  1  0
M  END
>  <MODEL>  (49) 
       1

>  <ApoScore>  (49) 
15.9754

$$$$
mol49_score_19.6378
     RDKit          3D

 42 45  0  0  1  0  0  0  0  0999 V2000
   12.2330   -1.1540   22.4320 C   0  0  0  0  0  0  0  0  0  0  0  0
   10.8200   -1.2890   22.6980 N   0  0  0  0  0  0  0  0  0  0  0  0
    9.8770   -0.7120   21.7680 C   0  0  0  0  0  0  0  0  0  0  0  0
    8.6660   -0.2310   22.5660 C   0  0  1  0  0  0  0  0  0  0  0  0
    7.6650    0.4430   21.6370 C   0  0  0  0  0  0  0  0  0  0  0  0
    7.5790    1.6540   21.5750 O   0  0  0  0  0  0  0  0  0  0  0  0
    6.9130   -0.3960   20.8420 N   0  0  0  0  0  0  0  0  0  0  0  0
    6.1260    0.1010   19.7730 C   0  0  0  0  0  0  0  0  0  0  0  0
    6.4370   -0.2200   18.4760 C   0  0  0  0  0  0  0  0  0  0  0  0
    5.7650    0.2320   17.3910 N   0  0  0  0  0  0  0  0  0  0  0  0
    4.7450    1.0280   17.5950 C   0  0  0  0  0  0  0  0  0  0  0  0
    4.2900    1.4140   18.8850 C   0  0  0  0  0  0  0  0  0  0  0  0
    3.1580    2.2550   19.0600 C   0  0  0  0  0  0  0  0  0  0  0  0
    2.7330    2.5960   20.3140 C   0  0  0  0  0  0  0  0  0  0  0  0
    3.4100    2.0960   21.4490 C   0  0  0  0  0  0  0  0  0  0  0  0
    4.5030    1.2780   21.3050 C   0  0  0  0  0  0  0  0  0  0  0  0
    4.9910    0.9350   20.0140 C   0  0  0  0  0  0  0  0  0  0  0  0
    5.0170    0.8940   22.1790 H   0  0  0  0  0  0  0  0  0  0  0  0
    3.0670    2.3670   22.4420 H   0  0  0  0  0  0  0  0  0  0  0  0
    1.8780    3.2530   20.4400 H   0  0  0  0  0  0  0  0  0  0  0  0
    2.6500    2.6210   18.1710 H   0  0  0  0  0  0  0  0  0  0  0  0
    4.2210    1.3930   16.7130 H   0  0  0  0  0  0  0  0  0  0  0  0
    7.2810   -0.8710   18.2550 H   0  0  0  0  0  0  0  0  0  0  0  0
    7.1390   -1.3830   20.8460 H   0  0  0  0  0  0  0  0  0  0  0  0
    8.1500   -1.3470   23.4480 C   0  0  0  0  0  0  0  0  0  0  0  0
    6.8460   -1.3120   23.9340 C   0  0  0  0  0  0  0  0  0  0  0  0
    6.3920   -2.3280   24.7540 C   0  0  0  0  0  0  0  0  0  0  0  0
    4.7440   -2.2880   25.3090 Cl  0  0  0  0  0  0  0  0  0  0  0  0
    7.2210   -3.3800   25.1390 C   0  0  0  0  0  0  0  0  0  0  0  0
    8.5370   -3.3870   24.7050 C   0  0  0  0  0  0  0  0  0  0  0  0
    9.0070   -2.3660   23.8760 C   0  0  0  0  0  0  0  0  0  0  0  0
   10.4610   -2.3210   23.5250 C   0  0  0  0  0  0  0  0  0  0  0  0
   11.2840   -3.1130   23.9630 O   0  0  0  0  0  0  0  0  0  0  0  0
    9.2300   -4.1670   25.0140 H   0  0  0  0  0  0  0  0  0  0  0  0
    6.8380   -4.1610   25.7850 H   0  0  0  0  0  0  0  0  0  0  0  0
    6.1840   -0.4940   23.6720 H   0  0  0  0  0  0  0  0  0  0  0  0
    9.0230    0.5790   23.2090 H   0  0  0  0  0  0  0  0  0  0  0  0
   10.3690    0.1510   21.3130 H   0  0  0  0  0  0  0  0  0  0  0  0
    9.5740   -1.4030   20.9560 H   0  0  0  0  0  0  0  0  0  0  0  0
   12.3960   -0.3720   21.6870 H   0  0  0  0  0  0  0  0  0  0  0  0
   12.6030   -2.1140   22.0690 H   0  0  0  0  0  0  0  0  0  0  0  0
   12.7640   -0.8750   23.3460 H   0  0  0  0  0  0  0  0  0  0  0  0
  1  2  1  0
  1 40  1  0
  1 41  1  0
  1 42  1  0
  2  3  1  0
  2 32  1  0
  3  4  1  0
  3 38  1  0
  3 39  1  0
  4  5  1  0
  4 25  1  0
  4 37  1  1
  5  6  2  0
  5  7  1  0
  7  8  1  0
  7 24  1  0
  8  9  2  0
  8 17  1  0
  9 10  1  0
  9 23  1  0
 10 11  2  0
 11 12  1  0
 11 22  1  0
 12 13  1  0
 12 17  2  0
 13 14  2  0
 13 21  1  0
 14 15  1  0
 14 20  1  0
 15 16  2  0
 15 19  1  0
 16 17  1  0
 16 18  1  0
 25 26  1  0
 25 31  2  0
 26 27  2  0
 26 36  1  0
 27 28  1  0
 27 29  1  0
 29 30  2  0
 29 35  1  0
 30 31  1  0
 30 34  1  0
 31 32  1  0
 32 33  2  0
M  END
>  <MODEL>  (50) 
       1

>  <ApoScore>  (50) 
19.6378

$$$$
mol50_score_18.0180
     RDKit          3D

 38 41  0  0  0  0  0  0  0  0999 V2000
    5.0920   -1.9810   21.3320 O   0  0  0  0  0  0  0  0  0  0  0  0
    6.2780   -1.7690   21.5160 C   0  0  0  0  0  0  0  0  0  0  0  0
    6.9400   -0.5080   20.8980 C   0  0  0  0  0  0  0  0  0  0  0  0
    6.1190    0.0870   19.7720 C   0  0  0  0  0  0  0  0  0  0  0  0
    6.4220   -0.2110   18.4670 C   0  0  0  0  0  0  0  0  0  0  0  0
    5.7590    0.2380   17.3670 N   0  0  0  0  0  0  0  0  0  0  0  0
    4.7360    1.0320   17.5770 C   0  0  0  0  0  0  0  0  0  0  0  0
    4.2870    1.4200   18.8690 C   0  0  0  0  0  0  0  0  0  0  0  0
    3.1630    2.2720   19.0430 C   0  0  0  0  0  0  0  0  0  0  0  0
    2.7460    2.6240   20.2990 C   0  0  0  0  0  0  0  0  0  0  0  0
    3.4350    2.1370   21.4300 C   0  0  0  0  0  0  0  0  0  0  0  0
    4.5260    1.3120   21.2880 C   0  0  0  0  0  0  0  0  0  0  0  0
    4.9880    0.9330   19.9990 C   0  0  0  0  0  0  0  0  0  0  0  0
    5.0280    0.9270   22.1680 H   0  0  0  0  0  0  0  0  0  0  0  0
    3.0930    2.4120   22.4220 H   0  0  0  0  0  0  0  0  0  0  0  0
    1.8880    3.2770   20.4340 H   0  0  0  0  0  0  0  0  0  0  0  0
    2.6440    2.6440   18.1620 H   0  0  0  0  0  0  0  0  0  0  0  0
    4.1990    1.4000   16.7000 H   0  0  0  0  0  0  0  0  0  0  0  0
    7.2640   -0.8650   18.2450 H   0  0  0  0  0  0  0  0  0  0  0  0
    7.0930    0.2480   21.6810 H   0  0  0  0  0  0  0  0  0  0  0  0
    7.9390   -0.7570   20.5090 H   0  0  0  0  0  0  0  0  0  0  0  0
    7.0560   -2.6400   22.2530 N   0  0  0  0  0  0  0  0  0  0  0  0
    6.6260   -4.0340   22.4110 C   0  0  0  0  0  0  0  0  0  0  0  0
    6.7450   -4.5010   23.8600 C   0  0  0  0  0  0  0  0  0  0  0  0
    8.0910   -4.1330   24.4010 C   0  0  0  0  0  0  0  0  0  0  0  0
    8.8520   -4.8700   25.7710 S   0  0  0  0  0  0  0  0  0  0  0  0
   10.1970   -3.7960   25.6490 C   0  0  0  0  0  0  0  0  0  0  0  0
   10.0630   -2.9270   24.6060 C   0  0  0  0  0  0  0  0  0  0  0  0
    8.8460   -3.1270   23.8850 C   0  0  0  0  0  0  0  0  0  0  0  0
    8.4100   -2.3230   22.6870 C   0  0  0  0  0  0  0  0  0  0  0  0
    9.1510   -2.4620   21.8850 H   0  0  0  0  0  0  0  0  0  0  0  0
    8.4720   -1.2650   22.9610 H   0  0  0  0  0  0  0  0  0  0  0  0
   10.8050   -2.1700   24.3620 H   0  0  0  0  0  0  0  0  0  0  0  0
   11.0120   -3.8610   26.3600 H   0  0  0  0  0  0  0  0  0  0  0  0
    5.9680   -4.0210   24.4670 H   0  0  0  0  0  0  0  0  0  0  0  0
    6.5690   -5.5790   23.9340 H   0  0  0  0  0  0  0  0  0  0  0  0
    5.5940   -4.1210   22.0690 H   0  0  0  0  0  0  0  0  0  0  0  0
    7.2360   -4.6900   21.7730 H   0  0  0  0  0  0  0  0  0  0  0  0
  1  2  2  0
  2  3  1  0
  2 22  1  0
  3  4  1  0
  3 20  1  0
  3 21  1  0
  4  5  2  0
  4 13  1  0
  5  6  1  0
  5 19  1  0
  6  7  2  0
  7  8  1  0
  7 18  1  0
  8  9  1  0
  8 13  2  0
  9 10  2  0
  9 17  1  0
 10 11  1  0
 10 16  1  0
 11 12  2  0
 11 15  1  0
 12 13  1  0
 12 14  1  0
 22 23  1  0
 22 30  1  0
 23 24  1  0
 23 37  1  0
 23 38  1  0
 24 25  1  0
 24 35  1  0
 24 36  1  0
 25 26  1  0
 25 29  2  0
 26 27  1  0
 27 28  2  0
 27 34  1  0
 28 29  1  0
 28 33  1  0
 29 30  1  0
 30 31  1  0
 30 32  1  0
M  END
>  <MODEL>  (51) 
       1

>  <ApoScore>  (51) 
18.0180

$$$$
mol51_score_28.0702
     RDKit          3D

 67 73  0  0  1  0  0  0  0  0999 V2000
    8.9730   -8.3430   24.3260 C   0  0  0  0  0  0  0  0  0  0  0  0
    7.6870   -7.6120   24.2380 C   0  0  0  0  0  0  0  0  0  0  0  0
    6.5260   -8.1090   24.4890 N   0  0  0  0  0  0  0  0  0  0  0  0
    5.6020   -7.1210   24.1910 N   0  0  0  0  0  0  0  0  0  0  0  0
    6.2760   -6.1090   23.7590 C   0  0  0  0  0  0  0  0  0  0  0  0
    5.6990   -4.8270   23.2510 C   0  0  0  0  0  0  0  0  0  0  0  0
    6.3130   -3.6340   23.7810 N   0  0  0  0  0  0  0  0  0  0  0  0
    7.5160   -3.0840   23.1820 C   0  0  0  0  0  0  0  0  0  0  0  0
    7.3510   -1.5850   22.8560 C   0  0  2  0  0  0  0  0  0  0  0  0
    6.3610   -1.4170   21.6860 C   0  0  0  0  0  0  0  0  0  0  0  0
    5.3020   -1.9890   21.5190 O   0  0  0  0  0  0  0  0  0  0  0  0
    6.8750   -0.4770   20.8290 N   0  0  0  0  0  0  0  0  0  0  0  0
    6.1150    0.0640   19.7730 C   0  0  0  0  0  0  0  0  0  0  0  0
    6.4660   -0.2170   18.4780 C   0  0  0  0  0  0  0  0  0  0  0  0
    5.8040    0.2360   17.3870 N   0  0  0  0  0  0  0  0  0  0  0  0
    4.7730    1.0160   17.6070 C   0  0  0  0  0  0  0  0  0  0  0  0
    4.3190    1.4000   18.9010 C   0  0  0  0  0  0  0  0  0  0  0  0
    3.2040    2.2600   19.0570 C   0  0  0  0  0  0  0  0  0  0  0  0
    2.7980    2.6440   20.3030 C   0  0  0  0  0  0  0  0  0  0  0  0
    3.4920    2.1920   21.4500 C   0  0  0  0  0  0  0  0  0  0  0  0
    4.5750    1.3560   21.3330 C   0  0  0  0  0  0  0  0  0  0  0  0
    5.0060    0.9270   20.0390 C   0  0  0  0  0  0  0  0  0  0  0  0
    5.1040    1.0290   22.2320 H   0  0  0  0  0  0  0  0  0  0  0  0
    3.1630    2.5220   22.4310 H   0  0  0  0  0  0  0  0  0  0  0  0
    1.9500    3.3130   20.4180 H   0  0  0  0  0  0  0  0  0  0  0  0
    2.7050    2.6160   18.1600 H   0  0  0  0  0  0  0  0  0  0  0  0
    4.2360    1.3890   16.7360 H   0  0  0  0  0  0  0  0  0  0  0  0
    7.3200   -0.8680   18.2900 H   0  0  0  0  0  0  0  0  0  0  0  0
    8.2150   -0.0380   21.1330 C   0  0  0  0  0  0  0  0  0  0  0  0
    8.6520   -0.9270   22.3130 C   0  0  2  0  0  0  0  0  0  0  0  0
    9.7460   -1.9160   21.8580 C   0  0  0  0  0  0  0  0  0  0  0  0
   10.9390   -1.2340   21.4240 N   0  0  0  0  0  0  0  0  0  0  0  0
   11.8220   -0.6200   22.2520 C   0  0  0  0  0  0  0  0  0  0  0  0
   11.7680   -0.7390   23.6590 C   0  0  0  0  0  0  0  0  0  0  0  0
   12.7480   -0.0790   24.3670 C   0  0  0  0  0  0  0  0  0  0  0  0
   13.7030    0.6500   23.7850 N   0  0  0  0  0  0  0  0  0  0  0  0
   13.6480    0.6930   22.4600 C   0  0  0  0  0  0  0  0  0  0  0  0
   12.7660    0.1230   21.6530 N   0  0  0  0  0  0  0  0  0  0  0  0
   14.4270    1.2790   21.9820 H   0  0  0  0  0  0  0  0  0  0  0  0
   12.7740   -0.1270   25.4570 H   0  0  0  0  0  0  0  0  0  0  0  0
   11.0110   -1.3220   24.1730 H   0  0  0  0  0  0  0  0  0  0  0  0
   11.1550   -1.1810   20.4410 H   0  0  0  0  0  0  0  0  0  0  0  0
    9.3710   -2.5330   21.0310 H   0  0  0  0  0  0  0  0  0  0  0  0
   10.0110   -2.5960   22.6770 H   0  0  0  0  0  0  0  0  0  0  0  0
    9.1090   -0.3160   23.0990 H   0  0  0  0  0  0  0  0  0  0  0  0
    8.2470    1.0360   21.3640 H   0  0  0  0  0  0  0  0  0  0  0  0
    8.8560   -0.1800   20.2650 H   0  0  0  0  0  0  0  0  0  0  0  0
    6.8120   -0.8840   24.1040 C   0  0  0  0  0  0  0  0  0  0  0  0
    6.9890    0.4930   24.3110 C   0  0  0  0  0  0  0  0  0  0  0  0
    6.4900    1.1020   25.4530 C   0  0  0  0  0  0  0  0  0  0  0  0
    6.7350    2.8100   25.6910 Cl  0  0  0  0  0  0  0  0  0  0  0  0
    5.7970    0.3810   26.4230 C   0  0  0  0  0  0  0  0  0  0  0  0
    5.5910   -0.9660   26.2070 C   0  0  0  0  0  0  0  0  0  0  0  0
    6.0760   -1.5910   25.0600 C   0  0  0  0  0  0  0  0  0  0  0  0
    5.7050   -3.0240   24.8460 C   0  0  0  0  0  0  0  0  0  0  0  0
    4.8720   -3.5970   25.5340 O   0  0  0  0  0  0  0  0  0  0  0  0
    5.0390   -1.5700   26.9170 H   0  0  0  0  0  0  0  0  0  0  0  0
    5.4210    0.8710   27.3150 H   0  0  0  0  0  0  0  0  0  0  0  0
    7.5200    1.1190   23.6010 H   0  0  0  0  0  0  0  0  0  0  0  0
    8.3730   -3.2040   23.8620 H   0  0  0  0  0  0  0  0  0  0  0  0
    7.7280   -3.6440   22.2720 H   0  0  0  0  0  0  0  0  0  0  0  0
    5.7360   -4.7860   22.1550 H   0  0  0  0  0  0  0  0  0  0  0  0
    4.6410   -4.8240   23.5270 H   0  0  0  0  0  0  0  0  0  0  0  0
    7.6150   -6.3410   23.7550 O   0  0  0  0  0  0  0  0  0  0  0  0
    9.3270   -8.4540   25.3570 H   0  0  0  0  0  0  0  0  0  0  0  0
    8.7950   -9.3540   23.9530 H   0  0  0  0  0  0  0  0  0  0  0  0
    9.7740   -7.9080   23.7360 H   0  0  0  0  0  0  0  0  0  0  0  0
  1  2  1  0
  1 65  1  0
  1 66  1  0
  1 67  1  0
  2  3  2  0
  2 64  1  0
  3  4  1  0
  4  5  2  0
  5  6  1  0
  5 64  1  0
  6  7  1  0
  6 62  1  0
  6 63  1  0
  7  8  1  0
  7 55  1  0
  9  8  1  1
  8 60  1  0
  8 61  1  0
  9 10  1  0
  9 30  1  0
  9 48  1  0
 10 11  2  0
 10 12  1  0
 12 13  1  0
 12 29  1  0
 13 14  2  0
 13 22  1  0
 14 15  1  0
 14 28  1  0
 15 16  2  0
 16 17  1  0
 16 27  1  0
 17 18  1  0
 17 22  2  0
 18 19  2  0
 18 26  1  0
 19 20  1  0
 19 25  1  0
 20 21  2  0
 20 24  1  0
 21 22  1  0
 21 23  1  0
 29 30  1  0
 29 46  1  0
 29 47  1  0
 30 31  1  0
 30 45  1  1
 31 32  1  0
 31 43  1  0
 31 44  1  0
 32 33  1  0
 32 42  1  0
 33 34  2  0
 33 38  1  0
 34 35  1  0
 34 41  1  0
 35 36  2  0
 35 40  1  0
 36 37  1  0
 37 38  2  0
 37 39  1  0
 48 49  2  0
 48 54  1  0
 49 50  1  0
 49 59  1  0
 50 51  1  0
 50 52  2  0
 52 53  1  0
 52 58  1  0
 53 54  2  0
 53 57  1  0
 54 55  1  0
 55 56  2  0
M  END
>  <MODEL>  (52) 
       1

>  <ApoScore>  (52) 
28.0702

$$$$
mol52_score_30.7191
     RDKit          3D

 66 71  0  0  1  0  0  0  0  0999 V2000
    6.5060    4.3420   21.3690 C   0  0  0  0  0  0  0  0  0  0  0  0
    7.4740    3.9640   22.3870 N   0  0  0  0  0  0  0  0  0  0  0  0
    7.0110    3.3220   23.4980 C   0  0  0  0  0  0  0  0  0  0  0  0
    5.8180    3.1250   23.6800 O   0  0  0  0  0  0  0  0  0  0  0  0
    8.0620    2.8570   24.5190 C   0  0  0  0  0  0  0  0  0  0  0  0
    8.7250    1.6420   24.0680 N   0  0  0  0  0  0  0  0  0  0  0  0
    7.9450    0.4150   23.9340 C   0  0  0  0  0  0  0  0  0  0  0  0
    8.3700   -0.4260   22.7010 C   0  0  2  0  0  0  0  0  0  0  0  0
    7.8880    0.2430   21.3930 C   0  0  0  0  0  0  0  0  0  0  0  0
    8.3470    1.2390   20.8680 O   0  0  0  0  0  0  0  0  0  0  0  0
    6.8520   -0.4930   20.8680 N   0  0  0  0  0  0  0  0  0  0  0  0
    6.1110    0.0370   19.7840 C   0  0  0  0  0  0  0  0  0  0  0  0
    6.4890   -0.2420   18.4970 C   0  0  0  0  0  0  0  0  0  0  0  0
    5.8330    0.2050   17.4000 N   0  0  0  0  0  0  0  0  0  0  0  0
    4.7930    0.9830   17.5990 C   0  0  0  0  0  0  0  0  0  0  0  0
    4.3180    1.3780   18.8830 C   0  0  0  0  0  0  0  0  0  0  0  0
    3.2080    2.2480   19.0470 C   0  0  0  0  0  0  0  0  0  0  0  0
    2.7960    2.6220   20.2990 C   0  0  0  0  0  0  0  0  0  0  0  0
    3.4830    2.1570   21.4430 C   0  0  0  0  0  0  0  0  0  0  0  0
    4.5620    1.3170   21.3100 C   0  0  0  0  0  0  0  0  0  0  0  0
    5.0000    0.8970   20.0220 C   0  0  0  0  0  0  0  0  0  0  0  0
    5.1250    1.0200   22.1910 H   0  0  0  0  0  0  0  0  0  0  0  0
    3.1840    2.4940   22.4310 H   0  0  0  0  0  0  0  0  0  0  0  0
    1.9470    3.2880   20.4160 H   0  0  0  0  0  0  0  0  0  0  0  0
    2.7120    2.6170   18.1540 H   0  0  0  0  0  0  0  0  0  0  0  0
    4.2690    1.3440   16.7160 H   0  0  0  0  0  0  0  0  0  0  0  0
    7.3690   -0.8570   18.3150 H   0  0  0  0  0  0  0  0  0  0  0  0
    6.4510   -1.6170   21.6900 C   0  0  0  0  0  0  0  0  0  0  0  0
    7.6680   -1.8150   22.6030 C   0  0  2  0  0  0  0  0  0  0  0  0
    7.3220   -2.5650   23.8770 C   0  0  0  0  0  0  0  0  0  0  0  0
    8.4840   -3.1380   24.5210 N   0  0  0  0  0  0  0  0  0  0  0  0
    8.3350   -3.7240   25.7420 C   0  0  0  0  0  0  0  0  0  0  0  0
    9.4030   -4.3450   26.4230 C   0  0  0  0  0  0  0  0  0  0  0  0
    9.1070   -4.8290   27.6750 C   0  0  0  0  0  0  0  0  0  0  0  0
    7.8860   -4.7840   28.2330 N   0  0  0  0  0  0  0  0  0  0  0  0
    6.9580   -4.2160   27.4800 C   0  0  0  0  0  0  0  0  0  0  0  0
    7.1010   -3.6980   26.2630 N   0  0  0  0  0  0  0  0  0  0  0  0
    5.9520   -4.1930   27.9000 H   0  0  0  0  0  0  0  0  0  0  0  0
    9.8890   -5.2750   28.2880 H   0  0  0  0  0  0  0  0  0  0  0  0
   10.3990   -4.4200   25.9830 H   0  0  0  0  0  0  0  0  0  0  0  0
    9.3970   -2.7870   24.2630 H   0  0  0  0  0  0  0  0  0  0  0  0
    6.6250   -3.3780   23.6520 H   0  0  0  0  0  0  0  0  0  0  0  0
    6.7800   -1.9310   24.5850 H   0  0  0  0  0  0  0  0  0  0  0  0
    8.3540   -2.4620   22.0560 H   0  0  0  0  0  0  0  0  0  0  0  0
    6.2510   -2.5060   21.0760 H   0  0  0  0  0  0  0  0  0  0  0  0
    5.5410   -1.3920   22.2700 H   0  0  0  0  0  0  0  0  0  0  0  0
    9.8800   -0.4880   22.6390 C   0  0  0  0  0  0  0  0  0  0  0  0
   10.4880   -1.3490   21.7160 C   0  0  0  0  0  0  0  0  0  0  0  0
   11.8510   -1.3200   21.5110 C   0  0  0  0  0  0  0  0  0  0  0  0
   12.4680   -2.3900   20.2720 Cl  0  0  0  0  0  0  0  0  0  0  0  0
   12.6580   -0.4320   22.2310 C   0  0  0  0  0  0  0  0  0  0  0  0
   12.0650    0.4260   23.1310 C   0  0  0  0  0  0  0  0  0  0  0  0
   10.6830    0.4510   23.2930 C   0  0  0  0  0  0  0  0  0  0  0  0
   10.0930    1.6110   24.0340 C   0  0  0  0  0  0  0  0  0  0  0  0
   10.7910    2.4980   24.5100 O   0  0  0  0  0  0  0  0  0  0  0  0
   12.6630    1.1300   23.6970 H   0  0  0  0  0  0  0  0  0  0  0  0
   13.7240   -0.3410   22.0780 H   0  0  0  0  0  0  0  0  0  0  0  0
    9.9140   -1.9910   21.0610 H   0  0  0  0  0  0  0  0  0  0  0  0
    8.0640   -0.1850   24.8490 H   0  0  0  0  0  0  0  0  0  0  0  0
    6.8940    0.6960   23.8310 H   0  0  0  0  0  0  0  0  0  0  0  0
    8.8530    3.6020   24.6790 H   0  0  0  0  0  0  0  0  0  0  0  0
    7.5520    2.7040   25.4800 H   0  0  0  0  0  0  0  0  0  0  0  0
    8.4090    3.7330   22.0570 H   0  0  0  0  0  0  0  0  0  0  0  0
    6.9850    4.9360   20.5860 H   0  0  0  0  0  0  0  0  0  0  0  0
    6.0240    3.4630   20.9200 H   0  0  0  0  0  0  0  0  0  0  0  0
    5.7180    4.9410   21.8310 H   0  0  0  0  0  0  0  0  0  0  0  0
  1  2  1  0
  1 64  1  0
  1 65  1  0
  1 66  1  0
  2  3  1  0
  2 63  1  0
  3  4  2  0
  3  5  1  0
  5  6  1  0
  5 61  1  0
  5 62  1  0
  6  7  1  0
  6 54  1  0
  8  7  1  1
  7 59  1  0
  7 60  1  0
  8  9  1  0
  8 29  1  0
  8 47  1  0
  9 10  2  0
  9 11  1  0
 11 12  1  0
 11 28  1  0
 12 13  2  0
 12 21  1  0
 13 14  1  0
 13 27  1  0
 14 15  2  0
 15 16  1  0
 15 26  1  0
 16 17  1  0
 16 21  2  0
 17 18  2  0
 17 25  1  0
 18 19  1  0
 18 24  1  0
 19 20  2  0
 19 23  1  0
 20 21  1  0
 20 22  1  0
 28 29  1  0
 28 45  1  0
 28 46  1  0
 29 30  1  0
 29 44  1  6
 30 31  1  0
 30 42  1  0
 30 43  1  0
 31 32  1  0
 31 41  1  0
 32 33  2  0
 32 37  1  0
 33 34  1  0
 33 40  1  0
 34 35  2  0
 34 39  1  0
 35 36  1  0
 36 37  2  0
 36 38  1  0
 47 48  1  0
 47 53  2  0
 48 49  2  0
 48 58  1  0
 49 50  1  0
 49 51  1  0
 51 52  2  0
 51 57  1  0
 52 53  1  0
 52 56  1  0
 53 54  1  0
 54 55  2  0
M  END
>  <MODEL>  (53) 
       1

>  <ApoScore>  (53) 
30.7191

$$$$
mol53_score_29.3033
     RDKit          3D

 77 84  0  0  1  0  0  0  0  0999 V2000
   10.2680    2.8640   24.4170 O   0  0  0  0  0  0  0  0  0  0  0  0
    9.7650    1.7830   24.1290 C   0  0  0  0  0  0  0  0  0  0  0  0
   10.5460    0.7400   23.3580 C   0  0  0  0  0  0  0  0  0  0  0  0
   11.9380    0.8200   23.2430 C   0  0  0  0  0  0  0  0  0  0  0  0
   12.6260    0.0320   22.3270 C   0  0  0  0  0  0  0  0  0  0  0  0
   11.8970   -0.8350   21.5100 C   0  0  0  0  0  0  0  0  0  0  0  0
   12.5800   -1.6880   20.1460 Cl  0  0  0  0  0  0  0  0  0  0  0  0
   10.5370   -0.9580   21.6550 C   0  0  0  0  0  0  0  0  0  0  0  0
    9.8580   -0.2460   22.6480 C   0  0  0  0  0  0  0  0  0  0  0  0
    8.3570   -0.3810   22.7640 C   0  0  1  0  0  0  0  0  0  0  0  0
    7.8580    0.1960   24.1120 C   0  0  0  0  0  0  0  0  0  0  0  0
    8.4600    1.4830   24.4230 N   0  0  0  0  0  0  0  0  0  0  0  0
    7.5680    2.5160   24.9450 C   0  0  0  0  0  0  0  0  0  0  0  0
    6.7860    3.2290   23.8410 C   0  0  0  0  0  0  0  0  0  0  0  0
    7.7020    4.0980   23.0490 N   0  0  0  0  0  0  0  0  0  0  0  0
    8.2790    5.3200   23.8140 C   0  0  0  0  0  0  0  0  0  0  0  0
    7.7330    6.2960   22.7570 C   0  0  0  0  0  0  0  0  0  0  0  0
    8.6490    7.2780   22.0450 C   0  0  0  0  0  0  0  0  0  0  0  0
    7.7310    8.3560   22.2630 O   0  0  0  0  0  0  0  0  0  0  0  0
    6.8430    7.5120   23.0060 C   0  0  0  0  0  0  0  0  0  0  0  0
    5.8520    7.4400   22.5360 H   0  0  0  0  0  0  0  0  0  0  0  0
    6.7150    7.8450   24.0450 H   0  0  0  0  0  0  0  0  0  0  0  0
    8.8210    7.0470   20.9870 H   0  0  0  0  0  0  0  0  0  0  0  0
    9.6160    7.4650   22.5320 H   0  0  0  0  0  0  0  0  0  0  0  0
    7.1250    5.0750   22.0350 C   0  0  0  0  0  0  0  0  0  0  0  0
    6.0350    5.0450   22.0140 H   0  0  0  0  0  0  0  0  0  0  0  0
    7.5130    4.8650   21.0420 H   0  0  0  0  0  0  0  0  0  0  0  0
    9.3580    5.2300   23.8970 H   0  0  0  0  0  0  0  0  0  0  0  0
    7.8230    5.4020   24.8010 H   0  0  0  0  0  0  0  0  0  0  0  0
    8.3940    3.4900   22.5800 H   0  0  0  0  0  0  0  0  0  0  0  0
    5.9720    3.8420   24.2430 H   0  0  0  0  0  0  0  0  0  0  0  0
    6.3610    2.5060   23.1470 H   0  0  0  0  0  0  0  0  0  0  0  0
    6.8590    2.0480   25.6340 H   0  0  0  0  0  0  0  0  0  0  0  0
    8.1730    3.2150   25.5260 H   0  0  0  0  0  0  0  0  0  0  0  0
    6.7710    0.3310   24.0190 H   0  0  0  0  0  0  0  0  0  0  0  0
    8.0590   -0.5160   24.9260 H   0  0  0  0  0  0  0  0  0  0  0  0
    7.7340    0.4460   21.6190 C   0  0  0  0  0  0  0  0  0  0  0  0
    7.9020    1.6380   21.4120 O   0  0  0  0  0  0  0  0  0  0  0  0
    6.9490   -0.3900   20.8610 N   0  0  0  0  0  0  0  0  0  0  0  0
    6.1730    0.0930   19.7850 C   0  0  0  0  0  0  0  0  0  0  0  0
    6.4860   -0.2720   18.5020 C   0  0  0  0  0  0  0  0  0  0  0  0
    5.8130    0.1550   17.4060 N   0  0  0  0  0  0  0  0  0  0  0  0
    4.8050    0.9700   17.6090 C   0  0  0  0  0  0  0  0  0  0  0  0
    4.3600    1.4000   18.8920 C   0  0  0  0  0  0  0  0  0  0  0  0
    3.2510    2.2720   19.0510 C   0  0  0  0  0  0  0  0  0  0  0  0
    2.8210    2.6300   20.2990 C   0  0  0  0  0  0  0  0  0  0  0  0
    3.4730    2.1270   21.4490 C   0  0  0  0  0  0  0  0  0  0  0  0
    4.5500    1.2850   21.3190 C   0  0  0  0  0  0  0  0  0  0  0  0
    5.0430    0.9270   20.0290 C   0  0  0  0  0  0  0  0  0  0  0  0
    5.0390    0.8930   22.2060 H   0  0  0  0  0  0  0  0  0  0  0  0
    3.1240    2.4190   22.4360 H   0  0  0  0  0  0  0  0  0  0  0  0
    1.9740    3.3000   20.4130 H   0  0  0  0  0  0  0  0  0  0  0  0
    2.7680    2.6500   18.1530 H   0  0  0  0  0  0  0  0  0  0  0  0
    4.2790    1.3260   16.7250 H   0  0  0  0  0  0  0  0  0  0  0  0
    7.3310   -0.9350   18.3220 H   0  0  0  0  0  0  0  0  0  0  0  0
    6.6760   -1.6660   21.4920 C   0  0  0  0  0  0  0  0  0  0  0  0
    7.8400   -1.8180   22.4660 C   0  0  2  0  0  0  0  0  0  0  0  0
    7.5190   -2.7180   23.6490 C   0  0  0  0  0  0  0  0  0  0  0  0
    8.7400   -3.0560   24.3500 N   0  0  0  0  0  0  0  0  0  0  0  0
    8.7310   -3.8500   25.4450 C   0  0  0  0  0  0  0  0  0  0  0  0
    9.9180   -4.2310   25.9570 N   0  0  0  0  0  0  0  0  0  0  0  0
    9.8490   -4.9450   27.0770 C   0  0  0  0  0  0  0  0  0  0  0  0
    8.6470   -5.2890   27.6900 C   0  0  0  0  0  0  0  0  0  0  0  0
    7.4940   -4.8790   27.0350 C   0  0  0  0  0  0  0  0  0  0  0  0
    7.5100   -4.1720   25.9120 N   0  0  0  0  0  0  0  0  0  0  0  0
    6.5020   -5.1300   27.4070 H   0  0  0  0  0  0  0  0  0  0  0  0
    8.6160   -5.8500   28.6170 H   0  0  0  0  0  0  0  0  0  0  0  0
   10.7960   -5.2700   27.5120 H   0  0  0  0  0  0  0  0  0  0  0  0
    9.6390   -2.7220   24.0320 H   0  0  0  0  0  0  0  0  0  0  0  0
    7.0200   -3.6370   23.3140 H   0  0  0  0  0  0  0  0  0  0  0  0
    6.8080   -2.2350   24.3300 H   0  0  0  0  0  0  0  0  0  0  0  0
    8.6440   -2.3190   21.9290 H   0  0  0  0  0  0  0  0  0  0  0  0
    5.7130   -1.6650   22.0310 H   0  0  0  0  0  0  0  0  0  0  0  0
    6.6460   -2.4740   20.7540 H   0  0  0  0  0  0  0  0  0  0  0  0
   10.0180   -1.5480   20.9110 H   0  0  0  0  0  0  0  0  0  0  0  0
   13.6970    0.1230   22.2090 H   0  0  0  0  0  0  0  0  0  0  0  0
   12.4930    1.5290   23.8470 H   0  0  0  0  0  0  0  0  0  0  0  0
  1  2  2  0
  2  3  1  0
  2 12  1  0
  3  4  1  0
  3  9  2  0
  4  5  2  0
  4 77  1  0
  5  6  1  0
  5 76  1  0
  6  7  1  0
  6  8  2  0
  8  9  1  0
  8 75  1  0
 10  9  1  0
 10 11  1  1
 10 37  1  0
 10 57  1  0
 11 12  1  0
 11 35  1  0
 11 36  1  0
 12 13  1  0
 13 14  1  0
 13 33  1  0
 13 34  1  0
 14 15  1  0
 14 31  1  0
 14 32  1  0
 15 16  1  0
 15 25  1  0
 15 30  1  0
 16 17  1  0
 16 28  1  0
 16 29  1  0
 17 18  1  0
 17 20  1  0
 17 25  1  0
 18 19  1  0
 18 23  1  0
 18 24  1  0
 19 20  1  0
 20 21  1  0
 20 22  1  0
 25 26  1  0
 25 27  1  0
 37 38  2  0
 37 39  1  0
 39 40  1  0
 39 56  1  0
 40 41  2  0
 40 49  1  0
 41 42  1  0
 41 55  1  0
 42 43  2  0
 43 44  1  0
 43 54  1  0
 44 45  1  0
 44 49  2  0
 45 46  2  0
 45 53  1  0
 46 47  1  0
 46 52  1  0
 47 48  2  0
 47 51  1  0
 48 49  1  0
 48 50  1  0
 56 57  1  0
 56 73  1  0
 56 74  1  0
 57 58  1  0
 57 72  1  6
 58 59  1  0
 58 70  1  0
 58 71  1  0
 59 60  1  0
 59 69  1  0
 60 61  2  0
 60 65  1  0
 61 62  1  0
 62 63  2  0
 62 68  1  0
 63 64  1  0
 63 67  1  0
 64 65  2  0
 64 66  1  0
M  CHG  1  15   1
M  END
>  <MODEL>  (54) 
       1

>  <ApoScore>  (54) 
29.3033

$$$$
mol54_score_28.5312
     RDKit          3D

 66 71  0  0  1  0  0  0  0  0999 V2000
    6.4740    4.3070   21.2490 C   0  0  0  0  0  0  0  0  0  0  0  0
    7.4260    3.9130   22.2680 N   0  0  0  0  0  0  0  0  0  0  0  0
    7.0020    3.3460   23.4230 C   0  0  0  0  0  0  0  0  0  0  0  0
    5.8180    3.1710   23.6840 O   0  0  0  0  0  0  0  0  0  0  0  0
    8.1050    2.9280   24.3980 C   0  0  0  0  0  0  0  0  0  0  0  0
    8.7680    1.6980   23.9900 N   0  0  0  0  0  0  0  0  0  0  0  0
    7.9610    0.5020   23.8100 C   0  0  0  0  0  0  0  0  0  0  0  0
    8.3740   -0.3380   22.5710 C   0  0  2  0  0  0  0  0  0  0  0  0
    7.9450    0.3770   21.2690 C   0  0  0  0  0  0  0  0  0  0  0  0
    8.4390    1.3830   20.8040 O   0  0  0  0  0  0  0  0  0  0  0  0
    6.8980   -0.3240   20.7130 N   0  0  0  0  0  0  0  0  0  0  0  0
    6.1230    0.1930   19.6510 C   0  0  0  0  0  0  0  0  0  0  0  0
    6.4390   -0.1180   18.3560 C   0  0  0  0  0  0  0  0  0  0  0  0
    5.7270    0.3140   17.2900 N   0  0  0  0  0  0  0  0  0  0  0  0
    4.6850    1.0740   17.5200 C   0  0  0  0  0  0  0  0  0  0  0  0
    4.2470    1.4640   18.8190 C   0  0  0  0  0  0  0  0  0  0  0  0
    3.1320    2.3170   19.0330 C   0  0  0  0  0  0  0  0  0  0  0  0
    2.7550    2.6690   20.3000 C   0  0  0  0  0  0  0  0  0  0  0  0
    3.4650    2.1820   21.4180 C   0  0  0  0  0  0  0  0  0  0  0  0
    4.5440    1.3510   21.2370 C   0  0  0  0  0  0  0  0  0  0  0  0
    4.9710    0.9840   19.9300 C   0  0  0  0  0  0  0  0  0  0  0  0
    5.1110    1.0250   22.1030 H   0  0  0  0  0  0  0  0  0  0  0  0
    3.1910    2.4870   22.4220 H   0  0  0  0  0  0  0  0  0  0  0  0
    1.9180    3.3410   20.4530 H   0  0  0  0  0  0  0  0  0  0  0  0
    2.6020    2.6950   18.1650 H   0  0  0  0  0  0  0  0  0  0  0  0
    4.1260    1.4230   16.6510 H   0  0  0  0  0  0  0  0  0  0  0  0
    7.3050   -0.7450   18.1490 H   0  0  0  0  0  0  0  0  0  0  0  0
    6.4090   -1.4180   21.5180 C   0  0  0  0  0  0  0  0  0  0  0  0
    7.5860   -1.6770   22.4580 C   0  0  2  0  0  0  0  0  0  0  0  0
    7.1830   -2.3860   23.7420 C   0  0  0  0  0  0  0  0  0  0  0  0
    8.3760   -2.8440   24.4080 N   0  0  0  0  0  0  0  0  0  0  0  0
    8.3020   -3.5610   25.5620 C   0  0  0  0  0  0  0  0  0  0  0  0
    9.4140   -4.3370   25.9690 C   0  0  0  0  0  0  0  0  0  0  0  0
    9.3890   -5.0650   27.0660 N   0  0  0  0  0  0  0  0  0  0  0  0
    8.2510   -5.0260   27.7790 C   0  0  0  0  0  0  0  0  0  0  0  0
    7.1660   -4.2600   27.3840 C   0  0  0  0  0  0  0  0  0  0  0  0
    7.1670   -3.5250   26.2650 N   0  0  0  0  0  0  0  0  0  0  0  0
    6.2410   -4.2470   27.9600 H   0  0  0  0  0  0  0  0  0  0  0  0
    8.2230   -5.6020   28.6970 H   0  0  0  0  0  0  0  0  0  0  0  0
   10.3200   -4.3540   25.3570 H   0  0  0  0  0  0  0  0  0  0  0  0
    9.2790   -2.7030   23.9680 H   0  0  0  0  0  0  0  0  0  0  0  0
    6.5170   -3.2350   23.5140 H   0  0  0  0  0  0  0  0  0  0  0  0
    6.6130   -1.7320   24.4210 H   0  0  0  0  0  0  0  0  0  0  0  0
    8.2510   -2.3550   21.9180 H   0  0  0  0  0  0  0  0  0  0  0  0
    6.1970   -2.2800   20.8760 H   0  0  0  0  0  0  0  0  0  0  0  0
    5.4750   -1.1660   22.0480 H   0  0  0  0  0  0  0  0  0  0  0  0
    9.8890   -0.4620   22.5300 C   0  0  0  0  0  0  0  0  0  0  0  0
   10.4990   -1.3970   21.6820 C   0  0  0  0  0  0  0  0  0  0  0  0
   11.8550   -1.3180   21.4130 C   0  0  0  0  0  0  0  0  0  0  0  0
   12.5420   -2.3980   20.2270 Cl  0  0  0  0  0  0  0  0  0  0  0  0
   12.6600   -0.3510   22.0240 C   0  0  0  0  0  0  0  0  0  0  0  0
   12.0780    0.5360   22.9000 C   0  0  0  0  0  0  0  0  0  0  0  0
   10.7010    0.5180   23.1120 C   0  0  0  0  0  0  0  0  0  0  0  0
   10.1250    1.7020   23.8260 C   0  0  0  0  0  0  0  0  0  0  0  0
   10.8320    2.6350   24.1790 O   0  0  0  0  0  0  0  0  0  0  0  0
   12.6600    1.3050   23.3970 H   0  0  0  0  0  0  0  0  0  0  0  0
   13.7140   -0.2610   21.7820 H   0  0  0  0  0  0  0  0  0  0  0  0
    9.9270   -2.1670   21.1770 H   0  0  0  0  0  0  0  0  0  0  0  0
    6.9240    0.8340   23.7110 H   0  0  0  0  0  0  0  0  0  0  0  0
    8.0300   -0.1230   24.7100 H   0  0  0  0  0  0  0  0  0  0  0  0
    8.8840    3.6940   24.4440 H   0  0  0  0  0  0  0  0  0  0  0  0
    7.6350    2.8290   25.3850 H   0  0  0  0  0  0  0  0  0  0  0  0
    8.3720    3.7230   21.9690 H   0  0  0  0  0  0  0  0  0  0  0  0
    6.9880    4.8500   20.4540 H   0  0  0  0  0  0  0  0  0  0  0  0
    5.7250    4.9700   21.6880 H   0  0  0  0  0  0  0  0  0  0  0  0
    5.9660    3.4360   20.8170 H   0  0  0  0  0  0  0  0  0  0  0  0
  1  2  1  0
  1 64  1  0
  1 65  1  0
  1 66  1  0
  2  3  1  0
  2 63  1  0
  3  4  2  0
  3  5  1  0
  5  6  1  0
  5 61  1  0
  5 62  1  0
  6  7  1  0
  6 54  1  0
  8  7  1  1
  7 59  1  0
  7 60  1  0
  8  9  1  0
  8 29  1  0
  8 47  1  0
  9 10  2  0
  9 11  1  0
 11 12  1  0
 11 28  1  0
 12 13  2  0
 12 21  1  0
 13 14  1  0
 13 27  1  0
 14 15  2  0
 15 16  1  0
 15 26  1  0
 16 17  1  0
 16 21  2  0
 17 18  2  0
 17 25  1  0
 18 19  1  0
 18 24  1  0
 19 20  2  0
 19 23  1  0
 20 21  1  0
 20 22  1  0
 28 29  1  0
 28 45  1  0
 28 46  1  0
 29 30  1  0
 29 44  1  6
 30 31  1  0
 30 42  1  0
 30 43  1  0
 31 32  1  0
 31 41  1  0
 32 33  2  0
 32 37  1  0
 33 34  1  0
 33 40  1  0
 34 35  2  0
 35 36  1  0
 35 39  1  0
 36 37  2  0
 36 38  1  0
 47 48  1  0
 47 53  2  0
 48 49  2  0
 48 58  1  0
 49 50  1  0
 49 51  1  0
 51 52  2  0
 51 57  1  0
 52 53  1  0
 52 56  1  0
 53 54  1  0
 54 55  2  0
M  END
>  <MODEL>  (55) 
       1

>  <ApoScore>  (55) 
28.5312

$$$$
mol55_score_27.6325
     RDKit          3D

 56 61  0  0  1  0  0  0  0  0999 V2000
   12.6310    2.2670   22.2890 C   0  0  0  0  0  0  0  0  0  0  0  0
   12.6480    0.8770   22.6860 N   0  0  0  0  0  0  0  0  0  0  0  0
   13.0180    0.3750   23.8810 C   0  0  0  0  0  0  0  0  0  0  0  0
   12.8270   -0.9840   23.8270 C   0  0  0  0  0  0  0  0  0  0  0  0
   12.3180   -1.2090   22.5300 C   0  0  0  0  0  0  0  0  0  0  0  0
   11.8880   -2.5040   21.9160 C   0  0  0  0  0  0  0  0  0  0  0  0
   10.5170   -2.8350   22.2720 N   0  0  0  0  0  0  0  0  0  0  0  0
    9.4250   -2.5670   21.3550 C   0  0  0  0  0  0  0  0  0  0  0  0
    8.2210   -1.9310   22.0880 C   0  0  1  0  0  0  0  0  0  0  0  0
    8.5350   -0.4780   22.5320 C   0  0  0  0  0  0  0  0  0  0  0  0
    7.9070    0.4390   21.4810 C   0  0  0  0  0  0  0  0  0  0  0  0
    6.9110   -0.4110   20.8470 N   0  0  0  0  0  0  0  0  0  0  0  0
    6.1150    0.0440   19.7710 C   0  0  0  0  0  0  0  0  0  0  0  0
    6.4390   -0.2820   18.4790 C   0  0  0  0  0  0  0  0  0  0  0  0
    5.7890    0.1940   17.3850 N   0  0  0  0  0  0  0  0  0  0  0  0
    4.7810    1.0050   17.5930 C   0  0  0  0  0  0  0  0  0  0  0  0
    4.3240    1.3990   18.8850 C   0  0  0  0  0  0  0  0  0  0  0  0
    3.2080    2.2560   19.0580 C   0  0  0  0  0  0  0  0  0  0  0  0
    2.7870    2.5950   20.3120 C   0  0  0  0  0  0  0  0  0  0  0  0
    3.4630    2.1070   21.4530 C   0  0  0  0  0  0  0  0  0  0  0  0
    4.5540    1.2840   21.3150 C   0  0  0  0  0  0  0  0  0  0  0  0
    5.0090    0.9120   20.0200 C   0  0  0  0  0  0  0  0  0  0  0  0
    5.0670    0.9070   22.1960 H   0  0  0  0  0  0  0  0  0  0  0  0
    3.1200    2.3950   22.4410 H   0  0  0  0  0  0  0  0  0  0  0  0
    1.9350    3.2550   20.4390 H   0  0  0  0  0  0  0  0  0  0  0  0
    2.7120    2.6350   18.1680 H   0  0  0  0  0  0  0  0  0  0  0  0
    4.2610    1.3970   16.7170 H   0  0  0  0  0  0  0  0  0  0  0  0
    7.2740   -0.9500   18.2820 H   0  0  0  0  0  0  0  0  0  0  0  0
    7.0450   -1.7540   21.1210 C   0  0  0  0  0  0  0  0  0  0  0  0
    6.3170   -2.6190   20.6780 O   0  0  0  0  0  0  0  0  0  0  0  0
    8.6440    0.7900   20.7450 H   0  0  0  0  0  0  0  0  0  0  0  0
    7.4360    1.3240   21.9230 H   0  0  0  0  0  0  0  0  0  0  0  0
    9.6120   -0.3260   22.6000 H   0  0  0  0  0  0  0  0  0  0  0  0
    8.0940   -0.3090   23.5170 H   0  0  0  0  0  0  0  0  0  0  0  0
    7.8880   -2.8350   23.2500 C   0  0  0  0  0  0  0  0  0  0  0  0
    6.5930   -2.9100   23.7520 C   0  0  0  0  0  0  0  0  0  0  0  0
    6.3440   -3.6700   24.8810 C   0  0  0  0  0  0  0  0  0  0  0  0
    4.7390   -3.6930   25.5310 Cl  0  0  0  0  0  0  0  0  0  0  0  0
    7.3460   -4.3930   25.5250 C   0  0  0  0  0  0  0  0  0  0  0  0
    8.6220   -4.3350   25.0080 C   0  0  0  0  0  0  0  0  0  0  0  0
    8.9000   -3.5370   23.9060 C   0  0  0  0  0  0  0  0  0  0  0  0
   10.3230   -3.3940   23.5010 C   0  0  0  0  0  0  0  0  0  0  0  0
   11.2450   -3.7220   24.2390 O   0  0  0  0  0  0  0  0  0  0  0  0
    9.4430   -4.9000   25.4310 H   0  0  0  0  0  0  0  0  0  0  0  0
    7.1240   -4.9900   26.4040 H   0  0  0  0  0  0  0  0  0  0  0  0
    5.7890   -2.3750   23.2610 H   0  0  0  0  0  0  0  0  0  0  0  0
    9.7870   -1.8840   20.5850 H   0  0  0  0  0  0  0  0  0  0  0  0
    9.1210   -3.5090   20.8990 H   0  0  0  0  0  0  0  0  0  0  0  0
   11.9660   -2.4390   20.8250 H   0  0  0  0  0  0  0  0  0  0  0  0
   12.5220   -3.3100   22.2940 H   0  0  0  0  0  0  0  0  0  0  0  0
   12.1960   -0.0720   21.8560 N   0  0  0  0  0  0  0  0  0  0  0  0
   12.9810   -1.7270   24.5970 H   0  0  0  0  0  0  0  0  0  0  0  0
   13.3400    1.0270   24.6770 H   0  0  0  0  0  0  0  0  0  0  0  0
   13.6460    2.6770   22.3420 H   0  0  0  0  0  0  0  0  0  0  0  0
   12.2290    2.2970   21.2740 H   0  0  0  0  0  0  0  0  0  0  0  0
   11.9890    2.8330   22.9690 H   0  0  0  0  0  0  0  0  0  0  0  0
  1  2  1  0
  1 54  1  0
  1 55  1  0
  1 56  1  0
  2  3  1  0
  2 51  1  0
  3  4  2  0
  3 53  1  0
  4  5  1  0
  4 52  1  0
  5  6  1  0
  5 51  2  0
  6  7  1  0
  6 49  1  0
  6 50  1  0
  7  8  1  0
  7 42  1  0
  9  8  1  6
  8 47  1  0
  8 48  1  0
  9 10  1  0
  9 29  1  0
  9 35  1  0
 10 11  1  0
 10 33  1  0
 10 34  1  0
 11 12  1  0
 11 31  1  0
 11 32  1  0
 12 13  1  0
 12 29  1  0
 13 14  2  0
 13 22  1  0
 14 15  1  0
 14 28  1  0
 15 16  2  0
 16 17  1  0
 16 27  1  0
 17 18  1  0
 17 22  2  0
 18 19  2  0
 18 26  1  0
 19 20  1  0
 19 25  1  0
 20 21  2  0
 20 24  1  0
 21 22  1  0
 21 23  1  0
 29 30  2  0
 35 36  2  0
 35 41  1  0
 36 37  1  0
 36 46  1  0
 37 38  1  0
 37 39  2  0
 39 40  1  0
 39 45  1  0
 40 41  2  0
 40 44  1  0
 41 42  1  0
 42 43  2  0
M  END
>  <MODEL>  (56) 
       1

>  <ApoScore>  (56) 
27.6325

$$$$
mol56_score_16.4743
     RDKit          3D

 41 43  0  0  1  0  0  0  0  0999 V2000
    8.0630    1.6450   20.9630 O   0  0  0  0  0  0  0  0  0  0  0  0
    7.8810    0.5920   21.5440 C   0  0  0  0  0  0  0  0  0  0  0  0
    6.9440   -0.4660   20.9160 C   0  0  0  0  0  0  0  0  0  0  0  0
    6.1160    0.0850   19.7740 C   0  0  0  0  0  0  0  0  0  0  0  0
    6.4280   -0.2080   18.4680 C   0  0  0  0  0  0  0  0  0  0  0  0
    5.7620    0.2390   17.3680 N   0  0  0  0  0  0  0  0  0  0  0  0
    4.7350    1.0300   17.5760 C   0  0  0  0  0  0  0  0  0  0  0  0
    4.2900    1.4240   18.8690 C   0  0  0  0  0  0  0  0  0  0  0  0
    3.1710    2.2810   19.0420 C   0  0  0  0  0  0  0  0  0  0  0  0
    2.7670    2.6470   20.3000 C   0  0  0  0  0  0  0  0  0  0  0  0
    3.4670    2.1720   21.4310 C   0  0  0  0  0  0  0  0  0  0  0  0
    4.5550    1.3410   21.2890 C   0  0  0  0  0  0  0  0  0  0  0  0
    4.9980    0.9450   19.9980 C   0  0  0  0  0  0  0  0  0  0  0  0
    5.0820    0.9910   22.1720 H   0  0  0  0  0  0  0  0  0  0  0  0
    3.1430    2.4720   22.4220 H   0  0  0  0  0  0  0  0  0  0  0  0
    1.9130    3.3080   20.4350 H   0  0  0  0  0  0  0  0  0  0  0  0
    2.6460    2.6480   18.1640 H   0  0  0  0  0  0  0  0  0  0  0  0
    4.1990    1.3990   16.7000 H   0  0  0  0  0  0  0  0  0  0  0  0
    7.2740   -0.8560   18.2480 H   0  0  0  0  0  0  0  0  0  0  0  0
    6.2890   -0.8990   21.6800 H   0  0  0  0  0  0  0  0  0  0  0  0
    7.5730   -1.2820   20.5320 H   0  0  0  0  0  0  0  0  0  0  0  0
    8.5070    0.3440   22.7630 N   0  0  0  0  0  0  0  0  0  0  0  0
    9.4040    1.3980   23.2700 C   0  0  0  0  0  0  0  0  0  0  0  0
   10.7750    1.4390   22.6000 C   0  0  0  0  0  0  0  0  0  0  0  0
   11.7200    0.3330   23.0420 C   0  0  0  0  0  0  0  0  0  0  0  0
   11.1400   -1.3490   22.7010 S   0  0  0  0  0  0  0  0  0  0  0  0
    9.8350   -1.4440   23.9480 C   0  0  0  0  0  0  0  0  0  0  0  0
    8.4740   -0.9390   23.4430 C   0  0  1  0  0  0  0  0  0  0  0  0
    7.4600   -0.8860   24.5830 C   0  0  0  0  0  0  0  0  0  0  0  0
    6.2700   -0.4390   24.1460 F   0  0  0  0  0  0  0  0  0  0  0  0
    7.2750   -2.0970   25.1420 F   0  0  0  0  0  0  0  0  0  0  0  0
    7.8540   -0.0690   25.5720 F   0  0  0  0  0  0  0  0  0  0  0  0
    8.0980   -1.7030   22.7580 H   0  0  0  0  0  0  0  0  0  0  0  0
   10.1700   -0.9050   24.8360 H   0  0  0  0  0  0  0  0  0  0  0  0
    9.7520   -2.4950   24.2400 H   0  0  0  0  0  0  0  0  0  0  0  0
   11.9050    0.3980   24.1180 H   0  0  0  0  0  0  0  0  0  0  0  0
   12.6900    0.4340   22.5440 H   0  0  0  0  0  0  0  0  0  0  0  0
   11.2590    2.4080   22.7970 H   0  0  0  0  0  0  0  0  0  0  0  0
   10.6190    1.3690   21.5290 H   0  0  0  0  0  0  0  0  0  0  0  0
    9.5270    1.2730   24.3440 H   0  0  0  0  0  0  0  0  0  0  0  0
    8.9000    2.3540   23.1240 H   0  0  0  0  0  0  0  0  0  0  0  0
  1  2  2  0
  2  3  1  0
  2 22  1  0
  3  4  1  0
  3 20  1  0
  3 21  1  0
  4  5  2  0
  4 13  1  0
  5  6  1  0
  5 19  1  0
  6  7  2  0
  7  8  1  0
  7 18  1  0
  8  9  1  0
  8 13  2  0
  9 10  2  0
  9 17  1  0
 10 11  1  0
 10 16  1  0
 11 12  2  0
 11 15  1  0
 12 13  1  0
 12 14  1  0
 22 23  1  0
 22 28  1  0
 23 24  1  0
 23 40  1  0
 23 41  1  0
 24 25  1  0
 24 38  1  0
 24 39  1  0
 25 26  1  0
 25 36  1  0
 25 37  1  0
 26 27  1  0
 27 28  1  0
 27 34  1  0
 27 35  1  0
 28 29  1  0
 28 33  1  6
 29 30  1  0
 29 31  1  0
 29 32  1  0
M  END
>  <MODEL>  (57) 
       1

>  <ApoScore>  (57) 
16.4743

$$$$
mol57_score_31.9598
     RDKit          3D

 67 72  0  0  1  0  0  0  0  0999 V2000
   13.8170   -0.1430   24.0530 C   0  0  0  0  0  0  0  0  0  0  0  0
   13.0320   -1.2820   23.6570 N   0  0  0  0  0  0  0  0  0  0  0  0
   12.4740   -1.2960   22.4300 C   0  0  0  0  0  0  0  0  0  0  0  0
   12.4500   -0.2940   21.7230 O   0  0  0  0  0  0  0  0  0  0  0  0
   11.8390   -2.6200   22.0150 C   0  0  0  0  0  0  0  0  0  0  0  0
   10.4660   -2.7550   22.4800 N   0  0  0  0  0  0  0  0  0  0  0  0
    9.3780   -2.3970   21.5840 C   0  0  0  0  0  0  0  0  0  0  0  0
    8.1500   -1.7930   22.3150 C   0  0  2  0  0  0  0  0  0  0  0  0
    7.0250   -1.6920   21.2670 C   0  0  0  0  0  0  0  0  0  0  0  0
    6.3510   -2.6000   20.8230 O   0  0  0  0  0  0  0  0  0  0  0  0
    6.8820   -0.3700   20.8970 N   0  0  0  0  0  0  0  0  0  0  0  0
    6.0960    0.0340   19.7870 C   0  0  0  0  0  0  0  0  0  0  0  0
    6.4110   -0.3420   18.5050 C   0  0  0  0  0  0  0  0  0  0  0  0
    5.7790    0.1300   17.3980 N   0  0  0  0  0  0  0  0  0  0  0  0
    4.7960    0.9820   17.5730 C   0  0  0  0  0  0  0  0  0  0  0  0
    4.3260    1.4090   18.8510 C   0  0  0  0  0  0  0  0  0  0  0  0
    3.2260    2.2930   19.0130 C   0  0  0  0  0  0  0  0  0  0  0  0
    2.8020    2.6480   20.2650 C   0  0  0  0  0  0  0  0  0  0  0  0
    3.4540    2.1450   21.4130 C   0  0  0  0  0  0  0  0  0  0  0  0
    4.5240    1.2960   21.2830 C   0  0  0  0  0  0  0  0  0  0  0  0
    4.9900    0.9180   19.9960 C   0  0  0  0  0  0  0  0  0  0  0  0
    5.0180    0.8960   22.1620 H   0  0  0  0  0  0  0  0  0  0  0  0
    3.1110    2.4360   22.4000 H   0  0  0  0  0  0  0  0  0  0  0  0
    1.9610    3.3240   20.3880 H   0  0  0  0  0  0  0  0  0  0  0  0
    2.7340    2.6860   18.1270 H   0  0  0  0  0  0  0  0  0  0  0  0
    4.3070    1.3700   16.6770 H   0  0  0  0  0  0  0  0  0  0  0  0
    7.2200   -1.0470   18.3200 H   0  0  0  0  0  0  0  0  0  0  0  0
    7.8430    0.5180   21.5260 C   0  0  0  0  0  0  0  0  0  0  0  0
    8.3210   -0.2940   22.7390 C   0  0  2  0  0  0  0  0  0  0  0  0
    9.7190    0.0980   23.2200 C   0  0  0  0  0  0  0  0  0  0  0  0
    9.7730    1.4090   23.8240 N   0  0  0  0  0  0  0  0  0  0  0  0
   10.4100    2.5070   23.2920 C   0  0  0  0  0  0  0  0  0  0  0  0
   10.2220    3.8300   23.5860 C   0  0  0  0  0  0  0  0  0  0  0  0
   10.8540    4.7320   22.7580 N   0  0  0  0  0  0  0  0  0  0  0  0
   11.5270    4.1110   21.8390 C   0  0  0  0  0  0  0  0  0  0  0  0
   12.1740    4.7770   20.6710 C   0  0  0  0  0  0  0  0  0  0  0  0
   12.4970    5.7770   20.9590 H   0  0  0  0  0  0  0  0  0  0  0  0
   13.0240    4.2070   20.2880 H   0  0  0  0  0  0  0  0  0  0  0  0
   11.4350    4.8850   19.8650 H   0  0  0  0  0  0  0  0  0  0  0  0
   11.5710    2.3730   21.9840 S   0  0  0  0  0  0  0  0  0  0  0  0
    9.6020    4.2090   24.3920 H   0  0  0  0  0  0  0  0  0  0  0  0
    9.3730    1.5140   24.7430 H   0  0  0  0  0  0  0  0  0  0  0  0
   10.0510   -0.6360   23.9610 H   0  0  0  0  0  0  0  0  0  0  0  0
   10.3950    0.0660   22.3630 H   0  0  0  0  0  0  0  0  0  0  0  0
    7.6300   -0.1150   23.5720 H   0  0  0  0  0  0  0  0  0  0  0  0
    7.3780    1.4680   21.8120 H   0  0  0  0  0  0  0  0  0  0  0  0
    8.6690    0.7510   20.8340 H   0  0  0  0  0  0  0  0  0  0  0  0
    7.8120   -2.7070   23.4780 C   0  0  0  0  0  0  0  0  0  0  0  0
    6.5000   -2.8150   23.9610 C   0  0  0  0  0  0  0  0  0  0  0  0
    6.2350   -3.6180   25.0600 C   0  0  0  0  0  0  0  0  0  0  0  0
    4.5970   -3.7760   25.6360 Cl  0  0  0  0  0  0  0  0  0  0  0  0
    7.2470   -4.3090   25.7240 C   0  0  0  0  0  0  0  0  0  0  0  0
    8.5450   -4.1860   25.2640 C   0  0  0  0  0  0  0  0  0  0  0  0
    8.8280   -3.4100   24.1420 C   0  0  0  0  0  0  0  0  0  0  0  0
   10.2560   -3.3600   23.6850 C   0  0  0  0  0  0  0  0  0  0  0  0
   11.1710   -3.8170   24.3560 O   0  0  0  0  0  0  0  0  0  0  0  0
    9.3670   -4.6880   25.7640 H   0  0  0  0  0  0  0  0  0  0  0  0
    7.0020   -4.9200   26.5880 H   0  0  0  0  0  0  0  0  0  0  0  0
    5.6870   -2.2780   23.4810 H   0  0  0  0  0  0  0  0  0  0  0  0
    9.7850   -1.6760   20.8670 H   0  0  0  0  0  0  0  0  0  0  0  0
    9.0290   -3.2780   21.0320 H   0  0  0  0  0  0  0  0  0  0  0  0
   12.4220   -3.4420   22.4360 H   0  0  0  0  0  0  0  0  0  0  0  0
   11.8620   -2.6700   20.9250 H   0  0  0  0  0  0  0  0  0  0  0  0
   13.0380   -2.1290   24.1980 H   0  0  0  0  0  0  0  0  0  0  0  0
   14.5470    0.0600   23.2740 H   0  0  0  0  0  0  0  0  0  0  0  0
   13.1850    0.7400   24.1560 H   0  0  0  0  0  0  0  0  0  0  0  0
   14.3240   -0.3560   24.9920 H   0  0  0  0  0  0  0  0  0  0  0  0
  1  2  1  0
  1 65  1  0
  1 66  1  0
  1 67  1  0
  2  3  1  0
  2 64  1  0
  3  4  2  0
  3  5  1  0
  5  6  1  0
  5 62  1  0
  5 63  1  0
  6  7  1  0
  6 55  1  0
  8  7  1  6
  7 60  1  0
  7 61  1  0
  8  9  1  0
  8 29  1  0
  8 48  1  0
  9 10  2  0
  9 11  1  0
 11 12  1  0
 11 28  1  0
 12 13  2  0
 12 21  1  0
 13 14  1  0
 13 27  1  0
 14 15  2  0
 15 16  1  0
 15 26  1  0
 16 17  1  0
 16 21  2  0
 17 18  2  0
 17 25  1  0
 18 19  1  0
 18 24  1  0
 19 20  2  0
 19 23  1  0
 20 21  1  0
 20 22  1  0
 28 29  1  0
 28 46  1  0
 28 47  1  0
 29 30  1  0
 29 45  1  1
 30 31  1  0
 30 43  1  0
 30 44  1  0
 31 32  1  0
 31 42  1  0
 32 33  2  0
 32 40  1  0
 33 34  1  0
 33 41  1  0
 34 35  2  0
 35 36  1  0
 35 40  1  0
 36 37  1  0
 36 38  1  0
 36 39  1  0
 48 49  1  0
 48 54  2  0
 49 50  2  0
 49 59  1  0
 50 51  1  0
 50 52  1  0
 52 53  2  0
 52 58  1  0
 53 54  1  0
 53 57  1  0
 54 55  1  0
 55 56  2  0
M  END
>  <MODEL>  (58) 
       1

>  <ApoScore>  (58) 
31.9598

$$$$
mol58_score_25.5326
     RDKit          3D

 57 62  0  0  1  0  0  0  0  0999 V2000
    7.4030   -2.9730   23.5520 C   0  0  0  0  0  0  0  0  0  0  0  0
    7.5490   -2.3510   22.1680 C   0  0  1  0  0  0  0  0  0  0  0  0
    6.2910   -1.5420   21.6840 C   0  0  0  0  0  0  0  0  0  0  0  0
    6.8590   -0.4680   20.8590 N   0  0  0  0  0  0  0  0  0  0  0  0
    6.1300    0.1050   19.7780 C   0  0  0  0  0  0  0  0  0  0  0  0
    6.4510   -0.2020   18.4770 C   0  0  0  0  0  0  0  0  0  0  0  0
    5.7740    0.2400   17.3910 N   0  0  0  0  0  0  0  0  0  0  0  0
    4.7450    1.0250   17.5860 C   0  0  0  0  0  0  0  0  0  0  0  0
    4.2920    1.4250   18.8750 C   0  0  0  0  0  0  0  0  0  0  0  0
    3.1730    2.2810   19.0530 C   0  0  0  0  0  0  0  0  0  0  0  0
    2.7770    2.6480   20.3090 C   0  0  0  0  0  0  0  0  0  0  0  0
    3.4790    2.1850   21.4450 C   0  0  0  0  0  0  0  0  0  0  0  0
    4.5670    1.3580   21.2980 C   0  0  0  0  0  0  0  0  0  0  0  0
    4.9970    0.9530   20.0100 C   0  0  0  0  0  0  0  0  0  0  0  0
    5.1230    1.0200   22.1670 H   0  0  0  0  0  0  0  0  0  0  0  0
    3.1680    2.4910   22.4380 H   0  0  0  0  0  0  0  0  0  0  0  0
    1.9270    3.3100   20.4440 H   0  0  0  0  0  0  0  0  0  0  0  0
    2.6550    2.6430   18.1680 H   0  0  0  0  0  0  0  0  0  0  0  0
    4.2120    1.3830   16.7030 H   0  0  0  0  0  0  0  0  0  0  0  0
    7.2910   -0.8570   18.2530 H   0  0  0  0  0  0  0  0  0  0  0  0
    8.2560   -0.3200   20.9800 C   0  0  0  0  0  0  0  0  0  0  0  0
    8.8630    0.6130   20.5470 O   0  0  0  0  0  0  0  0  0  0  0  0
    8.6530   -1.3070   22.0090 C   0  0  1  0  0  0  0  0  0  0  0  0
    9.2000   -0.5510   23.2340 C   0  0  0  0  0  0  0  0  0  0  0  0
    9.9310   -1.2690   24.2590 N   0  0  0  0  0  0  0  0  0  0  0  0
    9.8460   -0.9290   25.6640 C   0  0  0  0  0  0  0  0  0  0  0  0
    9.0920   -1.9770   26.4400 C   0  0  0  0  0  0  0  0  0  0  0  0
    7.8020   -1.7490   26.9060 C   0  0  0  0  0  0  0  0  0  0  0  0
    7.1930   -2.7910   27.5870 C   0  0  0  0  0  0  0  0  0  0  0  0
    7.7940   -3.9620   27.8080 N   0  0  0  0  0  0  0  0  0  0  0  0
    9.0340   -4.0640   27.3280 C   0  0  0  0  0  0  0  0  0  0  0  0
    9.7130   -3.1420   26.6550 N   0  0  0  0  0  0  0  0  0  0  0  0
    9.5360   -5.0130   27.4970 H   0  0  0  0  0  0  0  0  0  0  0  0
    6.1820   -2.6930   27.9770 H   0  0  0  0  0  0  0  0  0  0  0  0
    7.3060   -0.7930   26.7440 H   0  0  0  0  0  0  0  0  0  0  0  0
   10.8630   -0.8530   26.0560 H   0  0  0  0  0  0  0  0  0  0  0  0
    9.3590    0.0450   25.7450 H   0  0  0  0  0  0  0  0  0  0  0  0
   10.9550   -2.0390   23.8360 C   0  0  0  0  0  0  0  0  0  0  0  0
   11.8400   -2.4640   24.5870 O   0  0  0  0  0  0  0  0  0  0  0  0
   11.0300   -2.1970   22.4020 C   0  0  0  0  0  0  0  0  0  0  0  0
   12.3760   -2.3810   21.9720 C   0  0  0  0  0  0  0  0  0  0  0  0
   11.9100   -2.2620   20.6130 C   0  0  0  0  0  0  0  0  0  0  0  0
   12.3880   -3.0820   19.6320 C   0  0  0  0  0  0  0  0  0  0  0  0
   11.4860   -3.9780   19.1180 F   0  0  0  0  0  0  0  0  0  0  0  0
    9.9640   -2.2930   21.1740 C   0  0  0  0  0  0  0  0  0  0  0  0
    9.9620   -2.2920   21.1730 C   0  0  0  0  0  0  0  0  0  0  0  0
    9.1370   -1.9150   20.1680 H   0  0  0  0  0  0  0  0  0  0  0  0
   13.3990   -3.4740   19.6420 H   0  0  0  0  0  0  0  0  0  0  0  0
   13.1170   -3.0960   22.1870 H   0  0  0  0  0  0  0  0  0  0  0  0
    8.3030   -0.2150   23.7730 H   0  0  0  0  0  0  0  0  0  0  0  0
    9.6990    0.3840   22.9120 H   0  0  0  0  0  0  0  0  0  0  0  0
    5.6660   -1.1640   22.5090 H   0  0  0  0  0  0  0  0  0  0  0  0
    5.6310   -2.1720   21.0770 H   0  0  0  0  0  0  0  0  0  0  0  0
    7.6150   -3.1790   21.4610 H   0  0  0  0  0  0  0  0  0  0  0  0
    6.6260   -3.7360   23.5220 H   0  0  0  0  0  0  0  0  0  0  0  0
    8.3280   -3.4600   23.8800 H   0  0  0  0  0  0  0  0  0  0  0  0
    7.1180   -2.2420   24.3110 H   0  0  0  0  0  0  0  0  0  0  0  0
  1  2  1  0
  1 55  1  0
  1 56  1  0
  1 57  1  0
  2  3  1  0
  2 23  1  0
  2 54  1  6
  3  4  1  0
  3 52  1  0
  3 53  1  0
  4  5  1  0
  4 21  1  0
  5  6  2  0
  5 14  1  0
  6  7  1  0
  6 20  1  0
  7  8  2  0
  8  9  1  0
  8 19  1  0
  9 10  1  0
  9 14  2  0
 10 11  2  0
 10 18  1  0
 11 12  1  0
 11 17  1  0
 12 13  2  0
 12 16  1  0
 13 14  1  0
 13 15  1  0
 21 22  2  0
 23 21  1  0
 23 24  1  1
 23 46  1  0
 24 25  1  0
 24 50  1  0
 24 51  1  0
 25 26  1  0
 25 38  1  0
 26 27  1  0
 26 36  1  0
 26 37  1  0
 27 28  2  0
 27 32  1  0
 28 29  1  0
 28 35  1  0
 29 30  2  0
 29 34  1  0
 30 31  1  0
 31 32  2  0
 31 33  1  0
 38 39  2  0
 38 40  1  0
 40 41  2  0
 40 46  1  0
 41 42  1  0
 41 49  1  0
 42 43  2  0
 42 48  1  0
 43 44  1  0
 43 45  1  0
 45 46  2  0
 45 47  1  0
M  END
>  <MODEL>  (59) 
       1

>  <ApoScore>  (59) 
25.5326

$$$$
mol59_score_23.1196
     RDKit          3D

 60 65  0  0  1  0  0  0  0  0999 V2000
    7.3800   -4.7280   23.7960 C   0  0  0  0  0  0  0  0  0  0  0  0
    6.5800   -3.7190   23.2270 O   0  0  0  0  0  0  0  0  0  0  0  0
    6.9970   -2.4020   23.5300 C   0  0  0  0  0  0  0  0  0  0  0  0
    7.9130   -1.8380   22.4260 C   0  0  1  0  0  0  0  0  0  0  0  0
    7.1630   -1.7690   21.0810 C   0  0  0  0  0  0  0  0  0  0  0  0
    6.8840   -0.3660   20.8900 N   0  0  0  0  0  0  0  0  0  0  0  0
    6.1260    0.1090   19.7930 C   0  0  0  0  0  0  0  0  0  0  0  0
    6.4430   -0.2350   18.5010 C   0  0  0  0  0  0  0  0  0  0  0  0
    5.7810    0.2100   17.4030 N   0  0  0  0  0  0  0  0  0  0  0  0
    4.7620    1.0130   17.5980 C   0  0  0  0  0  0  0  0  0  0  0  0
    4.3020    1.4140   18.8850 C   0  0  0  0  0  0  0  0  0  0  0  0
    3.1780    2.2680   19.0500 C   0  0  0  0  0  0  0  0  0  0  0  0
    2.7400    2.6080   20.3000 C   0  0  0  0  0  0  0  0  0  0  0  0
    3.4000    2.1080   21.4450 C   0  0  0  0  0  0  0  0  0  0  0  0
    4.4930    1.2900   21.3160 C   0  0  0  0  0  0  0  0  0  0  0  0
    4.9850    0.9390   20.0260 C   0  0  0  0  0  0  0  0  0  0  0  0
    4.9850    0.9020   22.2020 H   0  0  0  0  0  0  0  0  0  0  0  0
    3.0530    2.3910   22.4360 H   0  0  0  0  0  0  0  0  0  0  0  0
    1.8870    3.2690   20.4290 H   0  0  0  0  0  0  0  0  0  0  0  0
    2.6810    2.6440   18.1600 H   0  0  0  0  0  0  0  0  0  0  0  0
    4.2340    1.3780   16.7150 H   0  0  0  0  0  0  0  0  0  0  0  0
    7.2980   -0.8800   18.2940 H   0  0  0  0  0  0  0  0  0  0  0  0
    7.7120    0.4550   21.6310 C   0  0  0  0  0  0  0  0  0  0  0  0
    7.8120    1.6500   21.4710 O   0  0  0  0  0  0  0  0  0  0  0  0
    8.4840   -0.4090   22.6580 C   0  0  1  0  0  0  0  0  0  0  0  0
    8.2650    0.0960   24.0980 C   0  0  0  0  0  0  0  0  0  0  0  0
    8.8770    1.3870   24.3380 N   0  0  0  0  0  0  0  0  0  0  0  0
    8.1260    2.4090   25.0410 C   0  0  0  0  0  0  0  0  0  0  0  0
    7.4340    3.3490   24.0970 C   0  0  0  0  0  0  0  0  0  0  0  0
    6.1700    3.2760   23.7400 N   0  0  0  0  0  0  0  0  0  0  0  0
    5.9970    4.3110   22.8540 C   0  0  0  0  0  0  0  0  0  0  0  0
    7.1570    5.0190   22.6850 C   0  0  0  0  0  0  0  0  0  0  0  0
    8.0740    4.3860   23.4930 N   0  0  0  0  0  0  0  0  0  0  0  0
    9.0590    4.5960   23.5810 H   0  0  0  0  0  0  0  0  0  0  0  0
    7.4190    5.8620   22.0630 H   0  0  0  0  0  0  0  0  0  0  0  0
    5.0430    4.4520   22.3690 H   0  0  0  0  0  0  0  0  0  0  0  0
    8.8400    2.9630   25.6520 H   0  0  0  0  0  0  0  0  0  0  0  0
    7.3850    1.9170   25.6800 H   0  0  0  0  0  0  0  0  0  0  0  0
   10.1270    1.7060   23.9060 C   0  0  0  0  0  0  0  0  0  0  0  0
   10.6590    2.7770   24.2020 O   0  0  0  0  0  0  0  0  0  0  0  0
   10.7560    0.7030   22.9960 C   0  0  0  0  0  0  0  0  0  0  0  0
   12.0940    0.8770   22.6580 C   0  0  0  0  0  0  0  0  0  0  0  0
   12.7230   -0.0130   21.8010 C   0  0  0  0  0  0  0  0  0  0  0  0
   11.9500   -1.0400   21.2400 C   0  0  0  0  0  0  0  0  0  0  0  0
   12.5970   -2.1270   20.0270 Cl  0  0  0  0  0  0  0  0  0  0  0  0
   10.5980   -1.1520   21.4880 C   0  0  0  0  0  0  0  0  0  0  0  0
    9.9820   -0.3090   22.4110 C   0  0  0  0  0  0  0  0  0  0  0  0
   10.0370   -1.8740   20.9040 H   0  0  0  0  0  0  0  0  0  0  0  0
   13.7670    0.1070   21.5300 H   0  0  0  0  0  0  0  0  0  0  0  0
   12.5970    1.7440   23.0790 H   0  0  0  0  0  0  0  0  0  0  0  0
    7.1990    0.1920   24.3180 H   0  0  0  0  0  0  0  0  0  0  0  0
    8.7110   -0.6470   24.7730 H   0  0  0  0  0  0  0  0  0  0  0  0
    7.7890   -2.1350   20.2640 H   0  0  0  0  0  0  0  0  0  0  0  0
    6.2360   -2.3480   21.0900 H   0  0  0  0  0  0  0  0  0  0  0  0
    8.7410   -2.5500   22.3670 H   0  0  0  0  0  0  0  0  0  0  0  0
    6.0870   -1.7970   23.6150 H   0  0  0  0  0  0  0  0  0  0  0  0
    7.5020   -2.3890   24.5070 H   0  0  0  0  0  0  0  0  0  0  0  0
    8.4460   -4.6270   23.5330 H   0  0  0  0  0  0  0  0  0  0  0  0
    7.2930   -4.7450   24.8940 H   0  0  0  0  0  0  0  0  0  0  0  0
    7.0140   -5.6810   23.4040 H   0  0  0  0  0  0  0  0  0  0  0  0
  1  2  1  0
  1 58  1  0
  1 59  1  0
  1 60  1  0
  2  3  1  0
  3  4  1  0
  3 56  1  0
  3 57  1  0
  4  5  1  0
  4 25  1  0
  4 55  1  6
  5  6  1  0
  5 53  1  0
  5 54  1  0
  6  7  1  0
  6 23  1  0
  7  8  2  0
  7 16  1  0
  8  9  1  0
  8 22  1  0
  9 10  2  0
 10 11  1  0
 10 21  1  0
 11 12  1  0
 11 16  2  0
 12 13  2  0
 12 20  1  0
 13 14  1  0
 13 19  1  0
 14 15  2  0
 14 18  1  0
 15 16  1  0
 15 17  1  0
 23 24  2  0
 25 23  1  0
 25 26  1  1
 25 47  1  0
 26 27  1  0
 26 51  1  0
 26 52  1  0
 27 28  1  0
 27 39  1  0
 28 29  1  0
 28 37  1  0
 28 38  1  0
 29 30  2  0
 29 33  1  0
 30 31  1  0
 31 32  2  0
 31 36  1  0
 32 33  1  0
 32 35  1  0
 33 34  1  0
 39 40  2  0
 39 41  1  0
 41 42  2  0
 41 47  1  0
 42 43  1  0
 42 50  1  0
 43 44  2  0
 43 49  1  0
 44 45  1  0
 44 46  1  0
 46 47  2  0
 46 48  1  0
M  END
>  <MODEL>  (60) 
       1

>  <ApoScore>  (60) 
23.1196

$$$$
mol60_score_18.0199
     RDKit          3D

 38 41  0  0  0  0  0  0  0  0999 V2000
    5.0920   -1.9810   21.3320 O   0  0  0  0  0  0  0  0  0  0  0  0
    6.2780   -1.7690   21.5160 C   0  0  0  0  0  0  0  0  0  0  0  0
    6.9400   -0.5080   20.8980 C   0  0  0  0  0  0  0  0  0  0  0  0
    6.1190    0.0870   19.7720 C   0  0  0  0  0  0  0  0  0  0  0  0
    6.4220   -0.2110   18.4670 C   0  0  0  0  0  0  0  0  0  0  0  0
    5.7590    0.2380   17.3670 N   0  0  0  0  0  0  0  0  0  0  0  0
    4.7360    1.0320   17.5770 C   0  0  0  0  0  0  0  0  0  0  0  0
    4.2870    1.4200   18.8690 C   0  0  0  0  0  0  0  0  0  0  0  0
    3.1630    2.2720   19.0430 C   0  0  0  0  0  0  0  0  0  0  0  0
    2.7460    2.6240   20.2990 C   0  0  0  0  0  0  0  0  0  0  0  0
    3.4350    2.1370   21.4300 C   0  0  0  0  0  0  0  0  0  0  0  0
    4.5260    1.3120   21.2880 C   0  0  0  0  0  0  0  0  0  0  0  0
    4.9880    0.9330   19.9990 C   0  0  0  0  0  0  0  0  0  0  0  0
    5.0280    0.9270   22.1680 H   0  0  0  0  0  0  0  0  0  0  0  0
    3.0930    2.4120   22.4220 H   0  0  0  0  0  0  0  0  0  0  0  0
    1.8880    3.2770   20.4340 H   0  0  0  0  0  0  0  0  0  0  0  0
    2.6440    2.6440   18.1620 H   0  0  0  0  0  0  0  0  0  0  0  0
    4.1990    1.4000   16.7000 H   0  0  0  0  0  0  0  0  0  0  0  0
    7.2640   -0.8650   18.2450 H   0  0  0  0  0  0  0  0  0  0  0  0
    7.0930    0.2480   21.6810 H   0  0  0  0  0  0  0  0  0  0  0  0
    7.9390   -0.7570   20.5090 H   0  0  0  0  0  0  0  0  0  0  0  0
    7.0560   -2.6400   22.2530 N   0  0  0  0  0  0  0  0  0  0  0  0
    6.6260   -4.0340   22.4110 C   0  0  0  0  0  0  0  0  0  0  0  0
    6.7450   -4.5010   23.8600 C   0  0  0  0  0  0  0  0  0  0  0  0
    8.0910   -4.1330   24.4010 C   0  0  0  0  0  0  0  0  0  0  0  0
    8.8520   -4.8700   25.7710 S   0  0  0  0  0  0  0  0  0  0  0  0
   10.1970   -3.7960   25.6490 C   0  0  0  0  0  0  0  0  0  0  0  0
   10.0630   -2.9270   24.6060 C   0  0  0  0  0  0  0  0  0  0  0  0
    8.8460   -3.1270   23.8850 C   0  0  0  0  0  0  0  0  0  0  0  0
    8.4100   -2.3230   22.6870 C   0  0  0  0  0  0  0  0  0  0  0  0
    9.1510   -2.4620   21.8850 H   0  0  0  0  0  0  0  0  0  0  0  0
    8.4720   -1.2650   22.9610 H   0  0  0  0  0  0  0  0  0  0  0  0
   10.8050   -2.1700   24.3620 H   0  0  0  0  0  0  0  0  0  0  0  0
   11.0120   -3.8610   26.3600 H   0  0  0  0  0  0  0  0  0  0  0  0
    5.9680   -4.0210   24.4670 H   0  0  0  0  0  0  0  0  0  0  0  0
    6.5690   -5.5790   23.9340 H   0  0  0  0  0  0  0  0  0  0  0  0
    5.5940   -4.1210   22.0690 H   0  0  0  0  0  0  0  0  0  0  0  0
    7.2360   -4.6900   21.7730 H   0  0  0  0  0  0  0  0  0  0  0  0
  1  2  2  0
  2  3  1  0
  2 22  1  0
  3  4  1  0
  3 20  1  0
  3 21  1  0
  4  5  2  0
  4 13  1  0
  5  6  1  0
  5 19  1  0
  6  7  2  0
  7  8  1  0
  7 18  1  0
  8  9  1  0
  8 13  2  0
  9 10  2  0
  9 17  1  0
 10 11  1  0
 10 16  1  0
 11 12  2  0
 11 15  1  0
 12 13  1  0
 12 14  1  0
 22 23  1  0
 22 30  1  0
 23 24  1  0
 23 37  1  0
 23 38  1  0
 24 25  1  0
 24 35  1  0
 24 36  1  0
 25 26  1  0
 25 29  2  0
 26 27  1  0
 27 28  2  0
 27 34  1  0
 28 29  1  0
 28 33  1  0
 29 30  1  0
 30 31  1  0
 30 32  1  0
M  END
>  <MODEL>  (61) 
       1

>  <ApoScore>  (61) 
18.0199

$$$$
mol61_score_27.3124
     RDKit          3D

 64 70  0  0  1  0  0  0  0  0999 V2000
   11.0170    2.6070   24.0480 O   0  0  0  0  0  0  0  0  0  0  0  0
   10.3630    1.6210   23.7220 C   0  0  0  0  0  0  0  0  0  0  0  0
   10.8750    0.6020   22.7570 C   0  0  0  0  0  0  0  0  0  0  0  0
   12.2110    0.6930   22.3760 C   0  0  0  0  0  0  0  0  0  0  0  0
   12.7830   -0.2540   21.5540 C   0  0  0  0  0  0  0  0  0  0  0  0
   11.9580   -1.2860   21.0840 C   0  0  0  0  0  0  0  0  0  0  0  0
   12.5550   -2.5730   20.0760 Cl  0  0  0  0  0  0  0  0  0  0  0  0
   10.6020   -1.3130   21.3560 C   0  0  0  0  0  0  0  0  0  0  0  0
   10.0420   -0.4020   22.2490 C   0  0  0  0  0  0  0  0  0  0  0  0
    8.5570   -0.4380   22.5830 C   0  0  1  0  0  0  0  0  0  0  0  0
    8.4380    0.1120   24.0210 C   0  0  0  0  0  0  0  0  0  0  0  0
    9.1100    1.3830   24.1990 N   0  0  0  0  0  0  0  0  0  0  0  0
    8.4470    2.4530   24.9200 C   0  0  0  0  0  0  0  0  0  0  0  0
    7.6950    3.4030   24.0200 C   0  0  0  0  0  0  0  0  0  0  0  0
    8.3260    4.4430   23.3770 C   0  0  0  0  0  0  0  0  0  0  0  0
    7.5610    5.2500   22.5360 C   0  0  0  0  0  0  0  0  0  0  0  0
    6.2570    5.0710   22.3410 N   0  0  0  0  0  0  0  0  0  0  0  0
    5.6500    4.0640   22.9510 N   0  0  0  0  0  0  0  0  0  0  0  0
    6.3340    3.2580   23.7570 C   0  0  0  0  0  0  0  0  0  0  0  0
    5.7550    2.4590   24.2190 H   0  0  0  0  0  0  0  0  0  0  0  0
    8.0100    6.0890   22.0100 H   0  0  0  0  0  0  0  0  0  0  0  0
    9.3870    4.6320   23.5250 H   0  0  0  0  0  0  0  0  0  0  0  0
    7.7850    2.0160   25.6730 H   0  0  0  0  0  0  0  0  0  0  0  0
    9.2320    3.0110   25.4230 H   0  0  0  0  0  0  0  0  0  0  0  0
    8.8900   -0.6230   24.6980 H   0  0  0  0  0  0  0  0  0  0  0  0
    7.3920    0.2410   24.2960 H   0  0  0  0  0  0  0  0  0  0  0  0
    7.7730    0.4310   21.5760 C   0  0  0  0  0  0  0  0  0  0  0  0
    7.8990    1.6210   21.3930 O   0  0  0  0  0  0  0  0  0  0  0  0
    6.8920   -0.3710   20.8850 N   0  0  0  0  0  0  0  0  0  0  0  0
    6.1270    0.1020   19.7920 C   0  0  0  0  0  0  0  0  0  0  0  0
    6.4430   -0.2370   18.5000 C   0  0  0  0  0  0  0  0  0  0  0  0
    5.7810    0.2090   17.4030 N   0  0  0  0  0  0  0  0  0  0  0  0
    4.7570    1.0080   17.5990 C   0  0  0  0  0  0  0  0  0  0  0  0
    4.2970    1.4020   18.8870 C   0  0  0  0  0  0  0  0  0  0  0  0
    3.1750    2.2570   19.0550 C   0  0  0  0  0  0  0  0  0  0  0  0
    2.7510    2.6120   20.3060 C   0  0  0  0  0  0  0  0  0  0  0  0
    3.4300    2.1370   21.4490 C   0  0  0  0  0  0  0  0  0  0  0  0
    4.5230    1.3170   21.3150 C   0  0  0  0  0  0  0  0  0  0  0  0
    4.9900    0.9360   20.0270 C   0  0  0  0  0  0  0  0  0  0  0  0
    5.0600    0.9920   22.2030 H   0  0  0  0  0  0  0  0  0  0  0  0
    3.1390    2.4710   22.4420 H   0  0  0  0  0  0  0  0  0  0  0  0
    1.8920    3.2670   20.4280 H   0  0  0  0  0  0  0  0  0  0  0  0
    2.6760    2.6350   18.1670 H   0  0  0  0  0  0  0  0  0  0  0  0
    4.2300    1.3780   16.7170 H   0  0  0  0  0  0  0  0  0  0  0  0
    7.2990   -0.8790   18.2910 H   0  0  0  0  0  0  0  0  0  0  0  0
    7.0990   -1.7780   21.1110 C   0  0  0  0  0  0  0  0  0  0  0  0
    7.9190   -1.8510   22.4070 C   0  0  2  0  0  0  0  0  0  0  0  0
    7.0680   -2.3910   23.5740 C   0  0  0  0  0  0  0  0  0  0  0  0
    6.6260   -3.7480   23.3380 N   0  0  0  0  0  0  0  0  0  0  0  0
    7.2790   -4.8920   23.6770 C   0  0  0  0  0  0  0  0  0  0  0  0
    6.8180   -6.0730   23.3610 N   0  0  0  0  0  0  0  0  0  0  0  0
    7.6470   -7.0810   23.7610 N   0  0  0  0  0  0  0  0  0  0  0  0
    8.6890   -6.6610   24.3940 C   0  0  0  0  0  0  0  0  0  0  0  0
    8.7930   -4.9300   24.5380 S   0  0  0  0  0  0  0  0  0  0  0  0
    9.4570   -7.3210   24.7790 H   0  0  0  0  0  0  0  0  0  0  0  0
    5.6770   -3.9010   23.0420 H   0  0  0  0  0  0  0  0  0  0  0  0
    7.6380   -2.3700   24.5030 H   0  0  0  0  0  0  0  0  0  0  0  0
    6.1790   -1.7670   23.7150 H   0  0  0  0  0  0  0  0  0  0  0  0
    8.7210   -2.5830   22.3020 H   0  0  0  0  0  0  0  0  0  0  0  0
    6.1370   -2.2920   21.1800 H   0  0  0  0  0  0  0  0  0  0  0  0
    7.6470   -2.2110   20.2750 H   0  0  0  0  0  0  0  0  0  0  0  0
    9.9900   -2.0380   20.8300 H   0  0  0  0  0  0  0  0  0  0  0  0
   13.8280   -0.1610   21.2470 H   0  0  0  0  0  0  0  0  0  0  0  0
   12.7770    1.5390   22.7510 H   0  0  0  0  0  0  0  0  0  0  0  0
  1  2  2  0
  2  3  1  0
  2 12  1  0
  3  4  1  0
  3  9  2  0
  4  5  2  0
  4 64  1  0
  5  6  1  0
  5 63  1  0
  6  7  1  0
  6  8  2  0
  8  9  1  0
  8 62  1  0
 10  9  1  0
 10 11  1  1
 10 27  1  0
 10 47  1  0
 11 12  1  0
 11 25  1  0
 11 26  1  0
 12 13  1  0
 13 14  1  0
 13 23  1  0
 13 24  1  0
 14 15  2  0
 14 19  1  0
 15 16  1  0
 15 22  1  0
 16 17  2  0
 16 21  1  0
 17 18  1  0
 18 19  2  0
 19 20  1  0
 27 28  2  0
 27 29  1  0
 29 30  1  0
 29 46  1  0
 30 31  2  0
 30 39  1  0
 31 32  1  0
 31 45  1  0
 32 33  2  0
 33 34  1  0
 33 44  1  0
 34 35  1  0
 34 39  2  0
 35 36  2  0
 35 43  1  0
 36 37  1  0
 36 42  1  0
 37 38  2  0
 37 41  1  0
 38 39  1  0
 38 40  1  0
 46 47  1  0
 46 60  1  0
 46 61  1  0
 47 48  1  0
 47 59  1  6
 48 49  1  0
 48 57  1  0
 48 58  1  0
 49 50  1  0
 49 56  1  0
 50 51  2  0
 50 54  1  0
 51 52  1  0
 52 53  2  0
 53 54  1  0
 53 55  1  0
M  END
>  <MODEL>  (62) 
       1

>  <ApoScore>  (62) 
27.3124

$$$$
mol62_score_26.7830
     RDKit          3D

 70 76  0  0  1  0  0  0  0  0999 V2000
    8.0220   -3.2190   22.9190 C   0  0  0  0  0  0  0  0  0  0  0  0
    8.0170   -2.0710   21.9230 C   0  0  1  0  0  0  0  0  0  0  0  0
    6.6720   -1.8050   21.2400 C   0  0  0  0  0  0  0  0  0  0  0  0
    6.9050   -0.5000   20.6480 N   0  0  0  0  0  0  0  0  0  0  0  0
    6.1560    0.0530   19.5820 C   0  0  0  0  0  0  0  0  0  0  0  0
    6.4940   -0.2410   18.2870 C   0  0  0  0  0  0  0  0  0  0  0  0
    5.8450    0.2410   17.1950 N   0  0  0  0  0  0  0  0  0  0  0  0
    4.8310    1.0450   17.4120 C   0  0  0  0  0  0  0  0  0  0  0  0
    4.3650    1.4200   18.7050 C   0  0  0  0  0  0  0  0  0  0  0  0
    3.2510    2.2820   18.8830 C   0  0  0  0  0  0  0  0  0  0  0  0
    2.8350    2.6280   20.1380 C   0  0  0  0  0  0  0  0  0  0  0  0
    3.5090    2.1320   21.2750 C   0  0  0  0  0  0  0  0  0  0  0  0
    4.5880    1.2950   21.1310 C   0  0  0  0  0  0  0  0  0  0  0  0
    5.0440    0.9170   19.8370 C   0  0  0  0  0  0  0  0  0  0  0  0
    5.1050    0.9160   22.0070 H   0  0  0  0  0  0  0  0  0  0  0  0
    3.1800    2.4230   22.2670 H   0  0  0  0  0  0  0  0  0  0  0  0
    1.9900    3.2990   20.2710 H   0  0  0  0  0  0  0  0  0  0  0  0
    2.7540    2.6680   17.9980 H   0  0  0  0  0  0  0  0  0  0  0  0
    4.3190    1.4420   16.5350 H   0  0  0  0  0  0  0  0  0  0  0  0
    7.3410   -0.8980   18.0960 H   0  0  0  0  0  0  0  0  0  0  0  0
    7.9790    0.1740   21.2030 C   0  0  0  0  0  0  0  0  0  0  0  0
    8.4110    1.2210   20.7720 O   0  0  0  0  0  0  0  0  0  0  0  0
    8.4290   -0.6490   22.4310 C   0  0  1  0  0  0  0  0  0  0  0  0
    7.6060   -0.1420   23.6350 C   0  0  0  0  0  0  0  0  0  0  0  0
    7.9860   -0.8150   24.8670 N   0  0  0  0  0  0  0  0  0  0  0  0
    6.9620   -0.7690   25.9060 C   0  0  0  0  0  0  0  0  0  0  0  0
    7.0050   -1.8450   26.9980 C   0  0  0  0  0  0  0  0  0  0  0  0
    7.2400   -3.2380   26.4790 N   0  0  2  0  0  0  0  0  0  0  0  0
    6.3340   -4.3010   27.0630 C   0  0  0  0  0  0  0  0  0  0  0  0
    7.1920   -5.0660   28.0600 C   0  0  0  0  0  0  0  0  0  0  0  0
    8.5920   -5.1000   27.4470 C   0  0  0  0  0  0  0  0  0  0  0  0
    9.7760   -5.4010   28.3730 C   0  0  0  0  0  0  0  0  0  0  0  0
   10.5290   -5.9220   27.2680 O   0  0  0  0  0  0  0  0  0  0  0  0
    9.2750   -6.2410   26.6520 C   0  0  0  0  0  0  0  0  0  0  0  0
    8.9680   -7.2380   26.9690 H   0  0  0  0  0  0  0  0  0  0  0  0
    9.2900   -6.1560   25.5640 H   0  0  0  0  0  0  0  0  0  0  0  0
    9.5250   -6.2160   29.0720 H   0  0  0  0  0  0  0  0  0  0  0  0
   10.2810   -4.6060   28.9180 H   0  0  0  0  0  0  0  0  0  0  0  0
    8.6590   -3.8070   26.6010 C   0  0  0  0  0  0  0  0  0  0  0  0
    8.9710   -4.0530   25.5820 H   0  0  0  0  0  0  0  0  0  0  0  0
    9.3340   -3.0350   26.9640 H   0  0  0  0  0  0  0  0  0  0  0  0
    7.2270   -4.4860   28.9900 H   0  0  0  0  0  0  0  0  0  0  0  0
    6.7650   -6.0350   28.3040 H   0  0  0  0  0  0  0  0  0  0  0  0
    5.9910   -4.9360   26.2440 H   0  0  0  0  0  0  0  0  0  0  0  0
    5.4720   -3.8270   27.5390 H   0  0  0  0  0  0  0  0  0  0  0  0
    7.0360   -3.1600   25.4780 H   0  0  0  0  0  0  0  0  0  0  0  0
    6.0200   -1.8270   27.4710 H   0  0  0  0  0  0  0  0  0  0  0  0
    7.7260   -1.5960   27.7640 H   0  0  0  0  0  0  0  0  0  0  0  0
    6.0140   -0.8820   25.3700 H   0  0  0  0  0  0  0  0  0  0  0  0
    6.9430    0.2170   26.3880 H   0  0  0  0  0  0  0  0  0  0  0  0
    9.3130   -0.7730   25.2170 C   0  0  0  0  0  0  0  0  0  0  0  0
    9.7080   -0.9040   26.3640 O   0  0  0  0  0  0  0  0  0  0  0  0
   10.3000   -0.5640   24.1170 C   0  0  0  0  0  0  0  0  0  0  0  0
   11.6460   -0.4330   24.4620 C   0  0  0  0  0  0  0  0  0  0  0  0
   12.5930   -0.2230   23.4850 C   0  0  0  0  0  0  0  0  0  0  0  0
   12.1800   -0.1770   22.1550 C   0  0  0  0  0  0  0  0  0  0  0  0
   13.4340    0.1200   20.9940 Cl  0  0  0  0  0  0  0  0  0  0  0  0
   10.8570   -0.3610   21.7850 C   0  0  0  0  0  0  0  0  0  0  0  0
    9.8880   -0.5160   22.7820 C   0  0  0  0  0  0  0  0  0  0  0  0
   10.5600   -0.3560   20.7420 H   0  0  0  0  0  0  0  0  0  0  0  0
   13.6460   -0.0930   23.7190 H   0  0  0  0  0  0  0  0  0  0  0  0
   11.9240   -0.4970   25.5080 H   0  0  0  0  0  0  0  0  0  0  0  0
    6.5350   -0.3020   23.4670 H   0  0  0  0  0  0  0  0  0  0  0  0
    7.7680    0.9450   23.7050 H   0  0  0  0  0  0  0  0  0  0  0  0
    6.4050   -2.5410   20.4770 H   0  0  0  0  0  0  0  0  0  0  0  0
    5.8530   -1.7790   21.9830 H   0  0  0  0  0  0  0  0  0  0  0  0
    8.7470   -2.3010   21.1340 H   0  0  0  0  0  0  0  0  0  0  0  0
    7.8400   -4.1720   22.4090 H   0  0  0  0  0  0  0  0  0  0  0  0
    8.9870   -3.2790   23.4380 H   0  0  0  0  0  0  0  0  0  0  0  0
    7.2430   -3.0870   23.6770 H   0  0  0  0  0  0  0  0  0  0  0  0
  1  2  1  0
  1 68  1  0
  1 69  1  0
  1 70  1  0
  2  3  1  0
  2 23  1  0
  2 67  1  6
  3  4  1  0
  3 65  1  0
  3 66  1  0
  4  5  1  0
  4 21  1  0
  5  6  2  0
  5 14  1  0
  6  7  1  0
  6 20  1  0
  7  8  2  0
  8  9  1  0
  8 19  1  0
  9 10  1  0
  9 14  2  0
 10 11  2  0
 10 18  1  0
 11 12  1  0
 11 17  1  0
 12 13  2  0
 12 16  1  0
 13 14  1  0
 13 15  1  0
 21 22  2  0
 23 21  1  0
 23 24  1  1
 23 59  1  0
 24 25  1  0
 24 63  1  0
 24 64  1  0
 25 26  1  0
 25 51  1  0
 26 27  1  0
 26 49  1  0
 26 50  1  0
 27 28  1  0
 27 47  1  0
 27 48  1  0
 28 29  1  0
 28 39  1  0
 28 46  1  6
 29 30  1  0
 29 44  1  0
 29 45  1  0
 30 31  1  0
 30 42  1  0
 30 43  1  0
 31 32  1  0
 31 34  1  0
 31 39  1  0
 32 33  1  0
 32 37  1  0
 32 38  1  0
 33 34  1  0
 34 35  1  0
 34 36  1  0
 39 40  1  0
 39 41  1  0
 51 52  2  0
 51 53  1  0
 53 54  2  0
 53 59  1  0
 54 55  1  0
 54 62  1  0
 55 56  2  0
 55 61  1  0
 56 57  1  0
 56 58  1  0
 58 59  2  0
 58 60  1  0
M  CHG  1  28   1
M  END
>  <MODEL>  (63) 
       1

>  <ApoScore>  (63) 
26.7830

$$$$
mol63_score_27.6322
     RDKit          3D

 56 61  0  0  1  0  0  0  0  0999 V2000
   12.6310    2.2670   22.2890 C   0  0  0  0  0  0  0  0  0  0  0  0
   12.6480    0.8770   22.6860 N   0  0  0  0  0  0  0  0  0  0  0  0
   13.0180    0.3750   23.8810 C   0  0  0  0  0  0  0  0  0  0  0  0
   12.8270   -0.9840   23.8270 C   0  0  0  0  0  0  0  0  0  0  0  0
   12.3180   -1.2090   22.5300 C   0  0  0  0  0  0  0  0  0  0  0  0
   11.8880   -2.5040   21.9160 C   0  0  0  0  0  0  0  0  0  0  0  0
   10.5170   -2.8350   22.2720 N   0  0  0  0  0  0  0  0  0  0  0  0
    9.4250   -2.5670   21.3550 C   0  0  0  0  0  0  0  0  0  0  0  0
    8.2210   -1.9310   22.0880 C   0  0  1  0  0  0  0  0  0  0  0  0
    8.5350   -0.4780   22.5320 C   0  0  0  0  0  0  0  0  0  0  0  0
    7.9070    0.4390   21.4810 C   0  0  0  0  0  0  0  0  0  0  0  0
    6.9110   -0.4110   20.8470 N   0  0  0  0  0  0  0  0  0  0  0  0
    6.1150    0.0440   19.7710 C   0  0  0  0  0  0  0  0  0  0  0  0
    6.4390   -0.2820   18.4790 C   0  0  0  0  0  0  0  0  0  0  0  0
    5.7890    0.1940   17.3850 N   0  0  0  0  0  0  0  0  0  0  0  0
    4.7810    1.0050   17.5930 C   0  0  0  0  0  0  0  0  0  0  0  0
    4.3240    1.3990   18.8850 C   0  0  0  0  0  0  0  0  0  0  0  0
    3.2080    2.2560   19.0580 C   0  0  0  0  0  0  0  0  0  0  0  0
    2.7870    2.5950   20.3120 C   0  0  0  0  0  0  0  0  0  0  0  0
    3.4630    2.1070   21.4530 C   0  0  0  0  0  0  0  0  0  0  0  0
    4.5540    1.2840   21.3150 C   0  0  0  0  0  0  0  0  0  0  0  0
    5.0090    0.9120   20.0200 C   0  0  0  0  0  0  0  0  0  0  0  0
    5.0670    0.9070   22.1960 H   0  0  0  0  0  0  0  0  0  0  0  0
    3.1200    2.3950   22.4410 H   0  0  0  0  0  0  0  0  0  0  0  0
    1.9350    3.2550   20.4390 H   0  0  0  0  0  0  0  0  0  0  0  0
    2.7120    2.6350   18.1680 H   0  0  0  0  0  0  0  0  0  0  0  0
    4.2610    1.3970   16.7170 H   0  0  0  0  0  0  0  0  0  0  0  0
    7.2740   -0.9500   18.2820 H   0  0  0  0  0  0  0  0  0  0  0  0
    7.0450   -1.7540   21.1210 C   0  0  0  0  0  0  0  0  0  0  0  0
    6.3170   -2.6190   20.6780 O   0  0  0  0  0  0  0  0  0  0  0  0
    8.6440    0.7900   20.7450 H   0  0  0  0  0  0  0  0  0  0  0  0
    7.4360    1.3240   21.9230 H   0  0  0  0  0  0  0  0  0  0  0  0
    9.6120   -0.3260   22.6000 H   0  0  0  0  0  0  0  0  0  0  0  0
    8.0940   -0.3090   23.5170 H   0  0  0  0  0  0  0  0  0  0  0  0
    7.8880   -2.8350   23.2500 C   0  0  0  0  0  0  0  0  0  0  0  0
    6.5930   -2.9100   23.7520 C   0  0  0  0  0  0  0  0  0  0  0  0
    6.3440   -3.6700   24.8810 C   0  0  0  0  0  0  0  0  0  0  0  0
    4.7390   -3.6930   25.5310 Cl  0  0  0  0  0  0  0  0  0  0  0  0
    7.3460   -4.3930   25.5250 C   0  0  0  0  0  0  0  0  0  0  0  0
    8.6220   -4.3350   25.0080 C   0  0  0  0  0  0  0  0  0  0  0  0
    8.9000   -3.5370   23.9060 C   0  0  0  0  0  0  0  0  0  0  0  0
   10.3230   -3.3940   23.5010 C   0  0  0  0  0  0  0  0  0  0  0  0
   11.2450   -3.7220   24.2390 O   0  0  0  0  0  0  0  0  0  0  0  0
    9.4430   -4.9000   25.4310 H   0  0  0  0  0  0  0  0  0  0  0  0
    7.1240   -4.9900   26.4040 H   0  0  0  0  0  0  0  0  0  0  0  0
    5.7890   -2.3750   23.2610 H   0  0  0  0  0  0  0  0  0  0  0  0
    9.7870   -1.8840   20.5850 H   0  0  0  0  0  0  0  0  0  0  0  0
    9.1210   -3.5090   20.8990 H   0  0  0  0  0  0  0  0  0  0  0  0
   11.9660   -2.4390   20.8250 H   0  0  0  0  0  0  0  0  0  0  0  0
   12.5220   -3.3100   22.2940 H   0  0  0  0  0  0  0  0  0  0  0  0
   12.1960   -0.0720   21.8560 N   0  0  0  0  0  0  0  0  0  0  0  0
   12.9810   -1.7270   24.5970 H   0  0  0  0  0  0  0  0  0  0  0  0
   13.3400    1.0270   24.6770 H   0  0  0  0  0  0  0  0  0  0  0  0
   13.6460    2.6770   22.3420 H   0  0  0  0  0  0  0  0  0  0  0  0
   12.2290    2.2970   21.2740 H   0  0  0  0  0  0  0  0  0  0  0  0
   11.9890    2.8330   22.9690 H   0  0  0  0  0  0  0  0  0  0  0  0
  1  2  1  0
  1 54  1  0
  1 55  1  0
  1 56  1  0
  2  3  1  0
  2 51  1  0
  3  4  2  0
  3 53  1  0
  4  5  1  0
  4 52  1  0
  5  6  1  0
  5 51  2  0
  6  7  1  0
  6 49  1  0
  6 50  1  0
  7  8  1  0
  7 42  1  0
  9  8  1  6
  8 47  1  0
  8 48  1  0
  9 10  1  0
  9 29  1  0
  9 35  1  0
 10 11  1  0
 10 33  1  0
 10 34  1  0
 11 12  1  0
 11 31  1  0
 11 32  1  0
 12 13  1  0
 12 29  1  0
 13 14  2  0
 13 22  1  0
 14 15  1  0
 14 28  1  0
 15 16  2  0
 16 17  1  0
 16 27  1  0
 17 18  1  0
 17 22  2  0
 18 19  2  0
 18 26  1  0
 19 20  1  0
 19 25  1  0
 20 21  2  0
 20 24  1  0
 21 22  1  0
 21 23  1  0
 29 30  2  0
 35 36  2  0
 35 41  1  0
 36 37  1  0
 36 46  1  0
 37 38  1  0
 37 39  2  0
 39 40  1  0
 39 45  1  0
 40 41  2  0
 40 44  1  0
 41 42  1  0
 42 43  2  0
M  END
>  <MODEL>  (64) 
       1

>  <ApoScore>  (64) 
27.6322

$$$$
mol64_score_22.0645
     RDKit          3D

 66 71  0  0  1  0  0  0  0  0999 V2000
    7.4720   -2.5320   23.8720 C   0  0  0  0  0  0  0  0  0  0  0  0
    7.7510   -1.7440   22.6000 C   0  0  1  0  0  0  0  0  0  0  0  0
    6.5480   -1.4970   21.6790 C   0  0  0  0  0  0  0  0  0  0  0  0
    6.9890   -0.3510   20.9080 N   0  0  0  0  0  0  0  0  0  0  0  0
    6.2340    0.1920   19.8420 C   0  0  0  0  0  0  0  0  0  0  0  0
    6.6030   -0.0930   18.5570 C   0  0  0  0  0  0  0  0  0  0  0  0
    5.9220    0.3160   17.4610 N   0  0  0  0  0  0  0  0  0  0  0  0
    4.8430    1.0340   17.6550 C   0  0  0  0  0  0  0  0  0  0  0  0
    4.3720    1.4410   18.9330 C   0  0  0  0  0  0  0  0  0  0  0  0
    3.2350    2.2760   19.0830 C   0  0  0  0  0  0  0  0  0  0  0  0
    2.8100    2.6580   20.3260 C   0  0  0  0  0  0  0  0  0  0  0  0
    3.4900    2.2090   21.4760 C   0  0  0  0  0  0  0  0  0  0  0  0
    4.5920    1.3960   21.3580 C   0  0  0  0  0  0  0  0  0  0  0  0
    5.0770    1.0010   20.0790 C   0  0  0  0  0  0  0  0  0  0  0  0
    5.0930    1.0590   22.2590 H   0  0  0  0  0  0  0  0  0  0  0  0
    3.1390    2.5080   22.4600 H   0  0  0  0  0  0  0  0  0  0  0  0
    1.9460    3.3080   20.4330 H   0  0  0  0  0  0  0  0  0  0  0  0
    2.7130    2.6020   18.1900 H   0  0  0  0  0  0  0  0  0  0  0  0
    4.2800    1.3370   16.7710 H   0  0  0  0  0  0  0  0  0  0  0  0
    7.4910   -0.6960   18.3820 H   0  0  0  0  0  0  0  0  0  0  0  0
    8.1170    0.2730   21.4070 C   0  0  0  0  0  0  0  0  0  0  0  0
    8.7300    1.1320   20.8110 O   0  0  0  0  0  0  0  0  0  0  0  0
    8.3710   -0.3390   22.8180 C   0  0  1  0  0  0  0  0  0  0  0  0
    7.5900    0.4790   23.8880 C   0  0  0  0  0  0  0  0  0  0  0  0
    8.1820    1.7870   24.0770 N   0  0  0  0  0  0  0  0  0  0  0  0
    7.3610    2.9880   24.1160 C   0  0  0  0  0  0  0  0  0  0  0  0
    7.1420    3.6220   22.7380 C   0  0  0  0  0  0  0  0  0  0  0  0
    6.0350    4.6060   22.7490 N   0  0  0  0  0  0  0  0  0  0  0  0
    6.2730    5.7490   23.7050 C   0  0  0  0  0  0  0  0  0  0  0  0
    5.2480    6.8580   23.4280 C   0  0  0  0  0  0  0  0  0  0  0  0
    4.1150    6.3070   22.7890 O   0  0  0  0  0  0  0  0  0  0  0  0
    4.4340    5.9870   21.4480 C   0  0  0  0  0  0  0  0  0  0  0  0
    5.6900    5.0950   21.3720 C   0  0  0  0  0  0  0  0  0  0  0  0
    6.5430    5.6440   20.9580 H   0  0  0  0  0  0  0  0  0  0  0  0
    5.5040    4.2260   20.7320 H   0  0  0  0  0  0  0  0  0  0  0  0
    4.5930    6.9120   20.8730 H   0  0  0  0  0  0  0  0  0  0  0  0
    3.5630    5.4760   21.0290 H   0  0  0  0  0  0  0  0  0  0  0  0
    5.6890    7.6470   22.8020 H   0  0  0  0  0  0  0  0  0  0  0  0
    4.9140    7.3170   24.3620 H   0  0  0  0  0  0  0  0  0  0  0  0
    6.1590    5.3710   24.7240 H   0  0  0  0  0  0  0  0  0  0  0  0
    7.2960    6.1210   23.5840 H   0  0  0  0  0  0  0  0  0  0  0  0
    5.1790    4.1220   23.0760 H   0  0  0  0  0  0  0  0  0  0  0  0
    6.9090    2.8550   21.9930 H   0  0  0  0  0  0  0  0  0  0  0  0
    8.0600    4.1250   22.4040 H   0  0  0  0  0  0  0  0  0  0  0  0
    7.8640    3.6940   24.7810 H   0  0  0  0  0  0  0  0  0  0  0  0
    6.3740    2.7590   24.5420 H   0  0  0  0  0  0  0  0  0  0  0  0
    9.5110    1.8710   24.3860 C   0  0  0  0  0  0  0  0  0  0  0  0
   10.0320    2.9060   24.7680 O   0  0  0  0  0  0  0  0  0  0  0  0
   10.3180    0.6240   24.1180 C   0  0  0  0  0  0  0  0  0  0  0  0
   11.6420    0.5930   24.5630 C   0  0  0  0  0  0  0  0  0  0  0  0
   12.5390   -0.3230   24.0510 C   0  0  0  0  0  0  0  0  0  0  0  0
   12.0720   -1.2270   23.0920 C   0  0  0  0  0  0  0  0  0  0  0  0
   13.2210   -2.2420   22.2700 Cl  0  0  0  0  0  0  0  0  0  0  0  0
   10.7380   -1.2930   22.7250 C   0  0  0  0  0  0  0  0  0  0  0  0
    9.8230   -0.3670   23.2500 C   0  0  0  0  0  0  0  0  0  0  0  0
   10.4340   -2.0500   22.0060 H   0  0  0  0  0  0  0  0  0  0  0  0
   13.5910   -0.3080   24.3270 H   0  0  0  0  0  0  0  0  0  0  0  0
   11.9820    1.3340   25.2730 H   0  0  0  0  0  0  0  0  0  0  0  0
    7.6250   -0.0750   24.8370 H   0  0  0  0  0  0  0  0  0  0  0  0
    6.5390    0.5860   23.6130 H   0  0  0  0  0  0  0  0  0  0  0  0
    5.6300   -1.2860   22.2490 H   0  0  0  0  0  0  0  0  0  0  0  0
    6.3370   -2.3450   21.0170 H   0  0  0  0  0  0  0  0  0  0  0  0
    8.4820   -2.2980   22.0020 H   0  0  0  0  0  0  0  0  0  0  0  0
    7.1680   -3.5590   23.6450 H   0  0  0  0  0  0  0  0  0  0  0  0
    8.3720   -2.5660   24.5010 H   0  0  0  0  0  0  0  0  0  0  0  0
    6.6710   -2.0670   24.4570 H   0  0  0  0  0  0  0  0  0  0  0  0
  1  2  1  0
  1 64  1  0
  1 65  1  0
  1 66  1  0
  2  3  1  0
  2 23  1  0
  2 63  1  6
  3  4  1  0
  3 61  1  0
  3 62  1  0
  4  5  1  0
  4 21  1  0
  5  6  2  0
  5 14  1  0
  6  7  1  0
  6 20  1  0
  7  8  2  0
  8  9  1  0
  8 19  1  0
  9 10  1  0
  9 14  2  0
 10 11  2  0
 10 18  1  0
 11 12  1  0
 11 17  1  0
 12 13  2  0
 12 16  1  0
 13 14  1  0
 13 15  1  0
 21 22  2  0
 23 21  1  0
 23 24  1  1
 23 55  1  0
 24 25  1  0
 24 59  1  0
 24 60  1  0
 25 26  1  0
 25 47  1  0
 26 27  1  0
 26 45  1  0
 26 46  1  0
 27 28  1  0
 27 43  1  0
 27 44  1  0
 28 29  1  0
 28 33  1  0
 28 42  1  0
 29 30  1  0
 29 40  1  0
 29 41  1  0
 30 31  1  0
 30 38  1  0
 30 39  1  0
 31 32  1  0
 32 33  1  0
 32 36  1  0
 32 37  1  0
 33 34  1  0
 33 35  1  0
 47 48  2  0
 47 49  1  0
 49 50  2  0
 49 55  1  0
 50 51  1  0
 50 58  1  0
 51 52  2  0
 51 57  1  0
 52 53  1  0
 52 54  1  0
 54 55  2  0
 54 56  1  0
M  CHG  1  28   1
M  END
>  <MODEL>  (65) 
       1

>  <ApoScore>  (65) 
22.0645

$$$$
mol65_score_25.1361
     RDKit          3D

 54 59  0  0  1  0  0  0  0  0999 V2000
   12.6750   -2.6210   20.9460 C   0  0  0  0  0  0  0  0  0  0  0  0
   12.1290   -2.1920   22.2170 N   0  0  0  0  0  0  0  0  0  0  0  0
   12.4700   -1.0140   22.7980 C   0  0  0  0  0  0  0  0  0  0  0  0
   13.3470   -0.2900   22.3590 O   0  0  0  0  0  0  0  0  0  0  0  0
   11.7640   -0.7130   24.1260 C   0  0  0  0  0  0  0  0  0  0  0  0
   10.3150   -0.8230   24.1480 N   0  0  0  0  0  0  0  0  0  0  0  0
    9.6370   -1.5880   25.1070 C   0  0  0  0  0  0  0  0  0  0  0  0
   10.0780   -2.5760   25.6630 O   0  0  0  0  0  0  0  0  0  0  0  0
    8.2650   -1.0140   25.2340 C   0  0  0  0  0  0  0  0  0  0  0  0
    7.2700   -1.3540   26.1150 C   0  0  0  0  0  0  0  0  0  0  0  0
    6.0860   -0.5750   26.1310 C   0  0  0  0  0  0  0  0  0  0  0  0
    5.9960    0.5640   25.3730 C   0  0  0  0  0  0  0  0  0  0  0  0
    4.5410    1.5120   25.4170 Cl  0  0  0  0  0  0  0  0  0  0  0  0
    7.1120    1.1070   24.5530 C   0  0  0  0  0  0  0  0  0  0  0  0
    8.0940    0.0010   24.2140 C   0  0  1  0  0  0  0  0  0  0  0  0
    9.4310    0.1430   23.5580 C   0  0  2  0  0  0  0  0  0  0  0  0
    8.2950   -0.3830   22.7180 C   0  0  2  0  0  0  0  0  0  0  0  0
    7.7580    0.5170   21.6200 C   0  0  0  0  0  0  0  0  0  0  0  0
    7.9500    1.7000   21.4310 O   0  0  0  0  0  0  0  0  0  0  0  0
    6.9360   -0.2670   20.8350 N   0  0  0  0  0  0  0  0  0  0  0  0
    6.1700    0.2410   19.7620 C   0  0  0  0  0  0  0  0  0  0  0  0
    6.5030   -0.0640   18.4660 C   0  0  0  0  0  0  0  0  0  0  0  0
    5.8210    0.3760   17.3840 N   0  0  0  0  0  0  0  0  0  0  0  0
    4.7610    1.1150   17.6010 C   0  0  0  0  0  0  0  0  0  0  0  0
    4.2980    1.4900   18.8930 C   0  0  0  0  0  0  0  0  0  0  0  0
    3.1560    2.3090   19.0830 C   0  0  0  0  0  0  0  0  0  0  0  0
    2.7240    2.6160   20.3430 C   0  0  0  0  0  0  0  0  0  0  0  0
    3.4010    2.1130   21.4770 C   0  0  0  0  0  0  0  0  0  0  0  0
    4.5130    1.3250   21.3200 C   0  0  0  0  0  0  0  0  0  0  0  0
    5.0040    1.0240   20.0190 C   0  0  0  0  0  0  0  0  0  0  0  0
    5.0130    0.9290   22.1980 H   0  0  0  0  0  0  0  0  0  0  0  0
    3.0540    2.3550   22.4780 H   0  0  0  0  0  0  0  0  0  0  0  0
    1.8580    3.2540   20.4800 H   0  0  0  0  0  0  0  0  0  0  0  0
    2.6470    2.6940   18.2040 H   0  0  0  0  0  0  0  0  0  0  0  0
    4.2120    1.4600   16.7270 H   0  0  0  0  0  0  0  0  0  0  0  0
    7.3730   -0.6870   18.2620 H   0  0  0  0  0  0  0  0  0  0  0  0
    7.0190   -1.6820   21.1100 C   0  0  0  0  0  0  0  0  0  0  0  0
    7.9930   -1.7660   22.2620 C   0  0  0  0  0  0  0  0  0  0  0  0
    8.3340   -2.9580   22.7610 C   0  0  0  0  0  0  0  0  0  0  0  0
    7.6850   -4.0590   22.3240 F   0  0  0  0  0  0  0  0  0  0  0  0
    9.0920   -3.1990   23.4980 H   0  0  0  0  0  0  0  0  0  0  0  0
    7.3540   -2.2360   20.2310 H   0  0  0  0  0  0  0  0  0  0  0  0
    6.0310   -2.0640   21.3860 H   0  0  0  0  0  0  0  0  0  0  0  0
    9.8030    1.1430   23.3720 H   0  0  0  0  0  0  0  0  0  0  0  0
    7.6450    1.9180   25.0880 H   0  0  0  0  0  0  0  0  0  0  0  0
    6.7070    1.5920   23.6540 H   0  0  0  0  0  0  0  0  0  0  0  0
    5.2450   -0.8580   26.7620 H   0  0  0  0  0  0  0  0  0  0  0  0
    7.3780   -2.2040   26.7820 H   0  0  0  0  0  0  0  0  0  0  0  0
   12.1220    0.2640   24.4790 H   0  0  0  0  0  0  0  0  0  0  0  0
   12.1230   -1.4820   24.8070 H   0  0  0  0  0  0  0  0  0  0  0  0
   11.2890   -2.6390   22.5390 H   0  0  0  0  0  0  0  0  0  0  0  0
   13.7230   -2.3260   20.8670 H   0  0  0  0  0  0  0  0  0  0  0  0
   12.6030   -3.7100   20.8960 H   0  0  0  0  0  0  0  0  0  0  0  0
   12.1400   -2.1730   20.1030 H   0  0  0  0  0  0  0  0  0  0  0  0
  1  2  1  0
  1 52  1  0
  1 53  1  0
  1 54  1  0
  2  3  1  0
  2 51  1  0
  3  4  2  0
  3  5  1  0
  5  6  1  0
  5 49  1  0
  5 50  1  0
  6  7  1  0
  6 16  1  0
  7  8  2  0
  7  9  1  0
  9 10  2  0
 10 11  1  0
 10 48  1  0
 11 12  2  0
 11 47  1  0
 12 13  1  0
 12 14  1  0
 15 14  1  6
 14 45  1  0
 14 46  1  0
 15  9  1  0
 15 16  1  0
 15 17  1  0
 16 17  1  0
 16 44  1  6
 17 18  1  6
 17 38  1  0
 18 19  2  0
 18 20  1  0
 20 21  1  0
 20 37  1  0
 21 22  2  0
 21 30  1  0
 22 23  1  0
 22 36  1  0
 23 24  2  0
 24 25  1  0
 24 35  1  0
 25 26  1  0
 25 30  2  0
 26 27  2  0
 26 34  1  0
 27 28  1  0
 27 33  1  0
 28 29  2  0
 28 32  1  0
 29 30  1  0
 29 31  1  0
 37 38  1  0
 37 42  1  0
 37 43  1  0
 38 39  2  0
 39 40  1  0
 39 41  1  0
M  END
>  <MODEL>  (66) 
       1

>  <ApoScore>  (66) 
25.1361

$$$$
mol66_score_22.7548
     RDKit          3D

 47 50  0  0  1  0  0  0  0  0999 V2000
    8.0160    1.6740   20.8310 O   0  0  0  0  0  0  0  0  0  0  0  0
    8.0180    0.5500   21.3110 C   0  0  0  0  0  0  0  0  0  0  0  0
    6.9530   -0.4780   20.9100 C   0  0  0  0  0  0  0  0  0  0  0  0
    6.1100    0.0420   19.7830 C   0  0  0  0  0  0  0  0  0  0  0  0
    6.4470   -0.2540   18.4890 C   0  0  0  0  0  0  0  0  0  0  0  0
    5.7990    0.2000   17.3820 N   0  0  0  0  0  0  0  0  0  0  0  0
    4.7810    1.0010   17.5850 C   0  0  0  0  0  0  0  0  0  0  0  0
    4.3240    1.4030   18.8680 C   0  0  0  0  0  0  0  0  0  0  0  0
    3.2130    2.2640   19.0380 C   0  0  0  0  0  0  0  0  0  0  0  0
    2.7990    2.6330   20.2880 C   0  0  0  0  0  0  0  0  0  0  0  0
    3.4930    2.1680   21.4290 C   0  0  0  0  0  0  0  0  0  0  0  0
    4.5810    1.3430   21.2930 C   0  0  0  0  0  0  0  0  0  0  0  0
    5.0150    0.9250   20.0080 C   0  0  0  0  0  0  0  0  0  0  0  0
    5.1280    1.0190   22.1740 H   0  0  0  0  0  0  0  0  0  0  0  0
    3.1590    2.4710   22.4170 H   0  0  0  0  0  0  0  0  0  0  0  0
    1.9410    3.2860   20.4140 H   0  0  0  0  0  0  0  0  0  0  0  0
    2.7030    2.6300   18.1490 H   0  0  0  0  0  0  0  0  0  0  0  0
    4.2560    1.3730   16.7020 H   0  0  0  0  0  0  0  0  0  0  0  0
    7.2990   -0.9030   18.2830 H   0  0  0  0  0  0  0  0  0  0  0  0
    6.3550   -0.7640   21.7850 H   0  0  0  0  0  0  0  0  0  0  0  0
    7.4870   -1.3790   20.5770 H   0  0  0  0  0  0  0  0  0  0  0  0
    8.9960    0.1610   22.2110 N   0  0  0  0  0  0  0  0  0  0  0  0
    9.2200   -1.2240   22.6080 C   0  0  0  0  0  0  0  0  0  0  0  0
    9.9350   -1.2940   23.9640 C   0  0  0  0  0  0  0  0  0  0  0  0
   11.2510   -0.4890   24.0050 C   0  0  1  0  0  0  0  0  0  0  0  0
   12.4250   -1.2570   23.3790 C   0  0  0  0  0  0  0  0  0  0  0  0
   13.7310   -0.4610   23.4400 C   0  0  0  0  0  0  0  0  0  0  0  0
   13.5220    0.7860   22.6160 C   0  0  0  0  0  0  0  0  0  0  0  0
   14.6620    1.5420   22.5410 F   0  0  0  0  0  0  0  0  0  0  0  0
   13.2530    0.3650   21.3300 F   0  0  0  0  0  0  0  0  0  0  0  0
   12.3810    1.6570   23.1030 C   0  0  0  0  0  0  0  0  0  0  0  0
   11.0590    0.9060   23.3630 C   0  0  1  0  0  0  0  0  0  0  0  0
   10.2620    0.8570   22.0680 C   0  0  0  0  0  0  0  0  0  0  0  0
   10.8490    0.3610   21.2890 H   0  0  0  0  0  0  0  0  0  0  0  0
   10.0680    1.8770   21.7290 H   0  0  0  0  0  0  0  0  0  0  0  0
   10.4570    1.4970   24.0630 H   0  0  0  0  0  0  0  0  0  0  0  0
   12.2050    2.4230   22.3370 H   0  0  0  0  0  0  0  0  0  0  0  0
   12.7270    2.1670   24.0050 H   0  0  0  0  0  0  0  0  0  0  0  0
   14.5570   -1.0170   22.9970 H   0  0  0  0  0  0  0  0  0  0  0  0
   14.0210   -0.1790   24.4590 H   0  0  0  0  0  0  0  0  0  0  0  0
   12.2110   -1.4220   22.3170 H   0  0  0  0  0  0  0  0  0  0  0  0
   12.5430   -2.2450   23.8430 H   0  0  0  0  0  0  0  0  0  0  0  0
   11.4990   -0.3090   25.0590 H   0  0  0  0  0  0  0  0  0  0  0  0
    9.2500   -0.9230   24.7380 H   0  0  0  0  0  0  0  0  0  0  0  0
   10.1380   -2.3540   24.1850 H   0  0  0  0  0  0  0  0  0  0  0  0
    8.2600   -1.7450   22.6660 H   0  0  0  0  0  0  0  0  0  0  0  0
    9.8280   -1.7300   21.8350 H   0  0  0  0  0  0  0  0  0  0  0  0
  1  2  2  0
  2  3  1  0
  2 22  1  0
  3  4  1  0
  3 20  1  0
  3 21  1  0
  4  5  2  0
  4 13  1  0
  5  6  1  0
  5 19  1  0
  6  7  2  0
  7  8  1  0
  7 18  1  0
  8  9  1  0
  8 13  2  0
  9 10  2  0
  9 17  1  0
 10 11  1  0
 10 16  1  0
 11 12  2  0
 11 15  1  0
 12 13  1  0
 12 14  1  0
 22 23  1  0
 22 33  1  0
 23 24  1  0
 23 46  1  0
 23 47  1  0
 24 25  1  0
 24 44  1  0
 24 45  1  0
 25 26  1  0
 25 32  1  0
 25 43  1  1
 26 27  1  0
 26 41  1  0
 26 42  1  0
 27 28  1  0
 27 39  1  0
 27 40  1  0
 28 29  1  0
 28 30  1  0
 28 31  1  0
 31 32  1  0
 31 37  1  0
 31 38  1  0
 32 33  1  0
 32 36  1  1
 33 34  1  0
 33 35  1  0
M  END
>  <MODEL>  (67) 
       1

>  <ApoScore>  (67) 
22.7548

$$$$
mol67_score_26.1118
     RDKit          3D

 69 74  0  0  1  0  0  0  0  0999 V2000
    6.6760    4.3180   21.1660 C   0  0  0  0  0  0  0  0  0  0  0  0
    7.0040    3.4240   22.2770 N   0  0  0  0  0  0  0  0  0  0  0  0
    8.0870    3.8810   23.1730 C   0  0  0  0  0  0  0  0  0  0  0  0
    8.2420    2.9170   24.3540 C   0  0  0  0  0  0  0  0  0  0  0  0
    8.8470    1.6470   23.9570 N   0  0  0  0  0  0  0  0  0  0  0  0
    8.1050    0.4050   23.8400 C   0  0  0  0  0  0  0  0  0  0  0  0
    8.4690   -0.4180   22.5660 C   0  0  2  0  0  0  0  0  0  0  0  0
    7.8680    0.2910   21.3440 C   0  0  0  0  0  0  0  0  0  0  0  0
    8.1410    1.4230   20.9600 O   0  0  0  0  0  0  0  0  0  0  0  0
    6.8870   -0.4750   20.7900 N   0  0  0  0  0  0  0  0  0  0  0  0
    6.1050    0.0760   19.7390 C   0  0  0  0  0  0  0  0  0  0  0  0
    6.4480   -0.2020   18.4420 C   0  0  0  0  0  0  0  0  0  0  0  0
    5.7630    0.2530   17.3700 N   0  0  0  0  0  0  0  0  0  0  0  0
    4.7340    1.0320   17.5910 C   0  0  0  0  0  0  0  0  0  0  0  0
    4.3050    1.4380   18.8870 C   0  0  0  0  0  0  0  0  0  0  0  0
    3.2000    2.3100   19.0730 C   0  0  0  0  0  0  0  0  0  0  0  0
    2.8210    2.6970   20.3300 C   0  0  0  0  0  0  0  0  0  0  0  0
    3.5270    2.2290   21.4590 C   0  0  0  0  0  0  0  0  0  0  0  0
    4.6010    1.3810   21.3030 C   0  0  0  0  0  0  0  0  0  0  0  0
    5.0190    0.9590   20.0080 C   0  0  0  0  0  0  0  0  0  0  0  0
    5.1230    1.0160   22.1840 H   0  0  0  0  0  0  0  0  0  0  0  0
    3.2210    2.5450   22.4530 H   0  0  0  0  0  0  0  0  0  0  0  0
    1.9800    3.3710   20.4650 H   0  0  0  0  0  0  0  0  0  0  0  0
    2.6750    2.6640   18.1910 H   0  0  0  0  0  0  0  0  0  0  0  0
    4.1830    1.3900   16.7210 H   0  0  0  0  0  0  0  0  0  0  0  0
    7.3140   -0.8270   18.2320 H   0  0  0  0  0  0  0  0  0  0  0  0
    6.4580   -1.5470   21.6750 C   0  0  0  0  0  0  0  0  0  0  0  0
    7.7270   -1.7880   22.5130 C   0  0  2  0  0  0  0  0  0  0  0  0
    7.4680   -2.4300   23.8700 C   0  0  0  0  0  0  0  0  0  0  0  0
    6.8650   -3.6850   23.6880 O   0  0  0  0  0  0  0  0  0  0  0  0
    6.4940   -4.2860   24.9080 C   0  0  0  0  0  0  0  0  0  0  0  0
    5.6760   -5.5130   24.6020 C   0  0  0  0  0  0  0  0  0  0  0  0
    5.4160   -6.2120   25.7560 F   0  0  0  0  0  0  0  0  0  0  0  0
    5.8780   -6.2590   23.3390 C   0  0  0  0  0  0  0  0  0  0  0  0
    4.6260   -5.4400   23.5490 C   0  0  0  0  0  0  0  0  0  0  0  0
    4.5490   -4.5040   23.0050 H   0  0  0  0  0  0  0  0  0  0  0  0
    3.7090   -5.9900   23.7160 H   0  0  0  0  0  0  0  0  0  0  0  0
    5.7640   -7.3330   23.3700 H   0  0  0  0  0  0  0  0  0  0  0  0
    6.6380   -5.8650   22.6780 H   0  0  0  0  0  0  0  0  0  0  0  0
    7.3840   -4.5650   25.4930 H   0  0  0  0  0  0  0  0  0  0  0  0
    5.8950   -3.5880   25.5160 H   0  0  0  0  0  0  0  0  0  0  0  0
    8.4200   -2.5330   24.4220 H   0  0  0  0  0  0  0  0  0  0  0  0
    6.7960   -1.7840   24.4600 H   0  0  0  0  0  0  0  0  0  0  0  0
    8.3450   -2.4700   21.9290 H   0  0  0  0  0  0  0  0  0  0  0  0
    5.6060   -1.2410   22.3030 H   0  0  0  0  0  0  0  0  0  0  0  0
    6.1500   -2.4220   21.0980 H   0  0  0  0  0  0  0  0  0  0  0  0
    9.9820   -0.4950   22.4450 C   0  0  0  0  0  0  0  0  0  0  0  0
   10.6040   -1.4440   21.6200 C   0  0  0  0  0  0  0  0  0  0  0  0
   11.9440   -1.3150   21.3250 C   0  0  0  0  0  0  0  0  0  0  0  0
   12.5960   -2.3400   20.0730 Cl  0  0  0  0  0  0  0  0  0  0  0  0
   12.7460   -0.3470   21.9420 C   0  0  0  0  0  0  0  0  0  0  0  0
   12.1650    0.5230   22.8410 C   0  0  0  0  0  0  0  0  0  0  0  0
   10.7820    0.5000   23.0290 C   0  0  0  0  0  0  0  0  0  0  0  0
   10.1990    1.6660   23.7710 C   0  0  0  0  0  0  0  0  0  0  0  0
   10.8990    2.6010   24.1460 O   0  0  0  0  0  0  0  0  0  0  0  0
   12.7470    1.2630   23.3800 H   0  0  0  0  0  0  0  0  0  0  0  0
   13.7910   -0.2680   21.6780 H   0  0  0  0  0  0  0  0  0  0  0  0
   10.0770   -2.2670   21.1470 H   0  0  0  0  0  0  0  0  0  0  0  0
    8.2920   -0.2140   24.7270 H   0  0  0  0  0  0  0  0  0  0  0  0
    7.0370    0.6290   23.8100 H   0  0  0  0  0  0  0  0  0  0  0  0
    8.9090    3.3420   25.1060 H   0  0  0  0  0  0  0  0  0  0  0  0
    7.2720    2.7120   24.8200 H   0  0  0  0  0  0  0  0  0  0  0  0
    7.8810    4.8930   23.5330 H   0  0  0  0  0  0  0  0  0  0  0  0
    9.0390    3.9170   22.6280 H   0  0  0  0  0  0  0  0  0  0  0  0
    7.3100    2.5200   21.8790 H   0  0  0  0  0  0  0  0  0  0  0  0
    6.1430    3.2570   22.8320 H   0  0  0  0  0  0  0  0  0  0  0  0
    6.7030    5.3650   21.4820 H   0  0  0  0  0  0  0  0  0  0  0  0
    5.6780    4.0770   20.7980 H   0  0  0  0  0  0  0  0  0  0  0  0
    7.3930    4.1680   20.3560 H   0  0  0  0  0  0  0  0  0  0  0  0
  1  2  1  0
  1 67  1  0
  1 68  1  0
  1 69  1  0
  2  3  1  0
  2 65  1  0
  2 66  1  0
  3  4  1  0
  3 63  1  0
  3 64  1  0
  4  5  1  0
  4 61  1  0
  4 62  1  0
  5  6  1  0
  5 54  1  0
  7  6  1  1
  6 59  1  0
  6 60  1  0
  7  8  1  0
  7 28  1  0
  7 47  1  0
  8  9  2  0
  8 10  1  0
 10 11  1  0
 10 27  1  0
 11 12  2  0
 11 20  1  0
 12 13  1  0
 12 26  1  0
 13 14  2  0
 14 15  1  0
 14 25  1  0
 15 16  1  0
 15 20  2  0
 16 17  2  0
 16 24  1  0
 17 18  1  0
 17 23  1  0
 18 19  2  0
 18 22  1  0
 19 20  1  0
 19 21  1  0
 27 28  1  0
 27 45  1  0
 27 46  1  0
 28 29  1  0
 28 44  1  6
 29 30  1  0
 29 42  1  0
 29 43  1  0
 30 31  1  0
 31 32  1  0
 31 40  1  0
 31 41  1  0
 32 33  1  0
 32 34  1  0
 32 35  1  0
 34 35  1  0
 34 38  1  0
 34 39  1  0
 35 36  1  0
 35 37  1  0
 47 48  1  0
 47 53  2  0
 48 49  2  0
 48 58  1  0
 49 50  1  0
 49 51  1  0
 51 52  2  0
 51 57  1  0
 52 53  1  0
 52 56  1  0
 53 54  1  0
 54 55  2  0
M  CHG  1   2   1
M  END
>  <MODEL>  (68) 
       1

>  <ApoScore>  (68) 
26.1118

$$$$
mol68_score_27.6110
     RDKit          3D

 57 62  0  0  1  0  0  0  0  0999 V2000
   14.2550    1.2780   22.3720 C   0  0  0  0  0  0  0  0  0  0  0  0
   13.5640    0.0550   22.7880 C   0  0  0  0  0  0  0  0  0  0  0  0
   12.7120   -0.5840   21.9960 N   0  0  0  0  0  0  0  0  0  0  0  0
   12.3640   -1.7640   22.6880 C   0  0  0  0  0  0  0  0  0  0  0  0
   11.5470   -2.6750   22.0230 C   0  0  0  0  0  0  0  0  0  0  0  0
   10.2640   -2.9030   22.5170 N   0  0  0  0  0  0  0  0  0  0  0  0
    9.1410   -2.6250   21.6330 C   0  0  0  0  0  0  0  0  0  0  0  0
    7.9710   -1.9320   22.3550 C   0  0  2  0  0  0  0  0  0  0  0  0
    6.8170   -1.8220   21.3240 C   0  0  0  0  0  0  0  0  0  0  0  0
    6.1000   -2.7120   20.9120 O   0  0  0  0  0  0  0  0  0  0  0  0
    6.7340   -0.5090   20.9030 N   0  0  0  0  0  0  0  0  0  0  0  0
    5.9700   -0.0760   19.7930 C   0  0  0  0  0  0  0  0  0  0  0  0
    6.3170   -0.4180   18.5100 C   0  0  0  0  0  0  0  0  0  0  0  0
    5.7300    0.1000   17.3990 N   0  0  0  0  0  0  0  0  0  0  0  0
    4.7640    0.9690   17.5700 C   0  0  0  0  0  0  0  0  0  0  0  0
    4.2780    1.3760   18.8450 C   0  0  0  0  0  0  0  0  0  0  0  0
    3.2130    2.3030   18.9770 C   0  0  0  0  0  0  0  0  0  0  0  0
    2.7770    2.6830   20.2160 C   0  0  0  0  0  0  0  0  0  0  0  0
    3.3870    2.1540   21.3780 C   0  0  0  0  0  0  0  0  0  0  0  0
    4.4180    1.2520   21.2750 C   0  0  0  0  0  0  0  0  0  0  0  0
    4.8930    0.8440   19.9990 C   0  0  0  0  0  0  0  0  0  0  0  0
    4.8810    0.8410   22.1680 H   0  0  0  0  0  0  0  0  0  0  0  0
    3.0410    2.4730   22.3580 H   0  0  0  0  0  0  0  0  0  0  0  0
    1.9640    3.3990   20.3160 H   0  0  0  0  0  0  0  0  0  0  0  0
    2.7690    2.7050   18.0700 H   0  0  0  0  0  0  0  0  0  0  0  0
    4.3070    1.4050   16.6780 H   0  0  0  0  0  0  0  0  0  0  0  0
    7.1220   -1.1260   18.3260 H   0  0  0  0  0  0  0  0  0  0  0  0
    7.7440    0.3440   21.4840 C   0  0  0  0  0  0  0  0  0  0  0  0
    8.1860   -0.4270   22.7280 C   0  0  2  0  0  0  0  0  0  0  0  0
    9.5730    0.0180   23.1620 C   0  0  0  0  0  0  0  0  0  0  0  0
    9.5560    1.0810   23.4310 H   0  0  0  0  0  0  0  0  0  0  0  0
   10.2730   -0.1070   22.3300 H   0  0  0  0  0  0  0  0  0  0  0  0
    9.9530   -0.5570   24.0140 H   0  0  0  0  0  0  0  0  0  0  0  0
    7.4710   -0.2400   23.5410 H   0  0  0  0  0  0  0  0  0  0  0  0
    7.3500    1.3400   21.7150 H   0  0  0  0  0  0  0  0  0  0  0  0
    8.6010    0.4910   20.8040 H   0  0  0  0  0  0  0  0  0  0  0  0
    7.6730   -2.8090   23.5580 C   0  0  0  0  0  0  0  0  0  0  0  0
    6.3700   -2.8970   24.0500 C   0  0  0  0  0  0  0  0  0  0  0  0
    6.1300   -3.6560   25.1770 C   0  0  0  0  0  0  0  0  0  0  0  0
    4.8650   -3.7850   25.6070 F   0  0  0  0  0  0  0  0  0  0  0  0
    7.1340   -4.2980   25.8940 C   0  0  0  0  0  0  0  0  0  0  0  0
    8.4250   -4.2160   25.4090 C   0  0  0  0  0  0  0  0  0  0  0  0
    8.6880   -3.5050   24.2360 C   0  0  0  0  0  0  0  0  0  0  0  0
   10.0930   -3.4860   23.7520 C   0  0  0  0  0  0  0  0  0  0  0  0
   11.0280   -3.9490   24.3820 O   0  0  0  0  0  0  0  0  0  0  0  0
    9.2550   -4.7060   25.9100 H   0  0  0  0  0  0  0  0  0  0  0  0
    6.8980   -4.8490   26.7980 H   0  0  0  0  0  0  0  0  0  0  0  0
    5.5450   -2.4040   23.5470 H   0  0  0  0  0  0  0  0  0  0  0  0
    8.7380   -3.5600   21.2330 H   0  0  0  0  0  0  0  0  0  0  0  0
    9.5340   -2.0140   20.8220 H   0  0  0  0  0  0  0  0  0  0  0  0
   12.7740   -0.5930   20.9900 H   0  0  0  0  0  0  0  0  0  0  0  0
   11.8180   -3.0500   21.0410 H   0  0  0  0  0  0  0  0  0  0  0  0
   12.8450   -1.7210   23.9130 N   0  0  0  0  0  0  0  0  0  0  0  0
   13.6310   -0.5470   23.9480 O   0  0  0  0  0  0  0  0  0  0  0  0
   14.7970    1.0430   21.4580 H   0  0  0  0  0  0  0  0  0  0  0  0
   14.9590    1.6730   23.0820 H   0  0  0  0  0  0  0  0  0  0  0  0
   13.5110    2.0420   22.1370 H   0  0  0  0  0  0  0  0  0  0  0  0
  1  2  1  0
  1 55  1  0
  1 56  1  0
  1 57  1  0
  2  3  2  0
  2 54  1  0
  3  4  1  0
  4  5  1  0
  4 53  2  0
  5  6  1  0
  5 51  1  0
  5 52  1  0
  6  7  1  0
  6 44  1  0
  8  7  1  6
  7 49  1  0
  7 50  1  0
  8  9  1  0
  8 29  1  0
  8 37  1  0
  9 10  2  0
  9 11  1  0
 11 12  1  0
 11 28  1  0
 12 13  2  0
 12 21  1  0
 13 14  1  0
 13 27  1  0
 14 15  2  0
 15 16  1  0
 15 26  1  0
 16 17  1  0
 16 21  2  0
 17 18  2  0
 17 25  1  0
 18 19  1  0
 18 24  1  0
 19 20  2  0
 19 23  1  0
 20 21  1  0
 20 22  1  0
 28 29  1  0
 28 35  1  0
 28 36  1  0
 29 30  1  0
 29 34  1  1
 30 31  1  0
 30 32  1  0
 30 33  1  0
 37 38  2  0
 37 43  1  0
 38 39  1  0
 38 48  1  0
 39 40  1  0
 39 41  2  0
 41 42  1  0
 41 47  1  0
 42 43  2  0
 42 46  1  0
 43 44  1  0
 44 45  2  0
 53 54  1  0
M  END
>  <MODEL>  (69) 
       1

>  <ApoScore>  (69) 
27.6110

$$$$
mol69_score_21.8257
     RDKit          3D

 64 68  0  0  0  0  0  0  0  0999 V2000
    6.8300    6.5070   22.5440 C   0  0  0  0  0  0  0  0  0  0  0  0
    7.4550    6.3800   23.9380 C   0  0  0  0  0  0  0  0  0  0  0  0
    8.0190    4.9930   24.1980 C   0  0  0  0  0  0  0  0  0  0  0  0
    7.2810    4.0880   24.5280 O   0  0  0  0  0  0  0  0  0  0  0  0
    9.4020    4.8160   24.0590 N   0  0  0  0  0  0  0  0  0  0  0  0
   10.2730    5.9170   24.4750 C   0  0  0  0  0  0  0  0  0  0  0  0
   11.6180    5.4440   25.0100 C   0  0  0  0  0  0  0  0  0  0  0  0
   12.2560    4.4860   24.0050 C   0  0  0  0  0  0  0  0  0  0  0  0
   11.3210    3.3240   23.7340 C   0  0  0  0  0  0  0  0  0  0  0  0
   11.7830    2.0210   23.5210 C   0  0  0  0  0  0  0  0  0  0  0  0
   10.9340    1.0170   23.0600 C   0  0  0  0  0  0  0  0  0  0  0  0
    9.6020    1.3300   22.7690 C   0  0  0  0  0  0  0  0  0  0  0  0
    8.7200    0.3270   22.2400 N   0  0  0  0  0  0  0  0  0  0  0  0
    8.5380   -0.9110   23.0060 C   0  0  0  0  0  0  0  0  0  0  0  0
    8.0370   -0.6360   24.4070 C   0  0  0  0  0  0  0  0  0  0  0  0
    6.6770   -0.4480   24.6660 C   0  0  0  0  0  0  0  0  0  0  0  0
    6.2540   -0.0670   25.9360 C   0  0  0  0  0  0  0  0  0  0  0  0
    7.1870    0.1710   26.9440 C   0  0  0  0  0  0  0  0  0  0  0  0
    8.5330   -0.0310   26.6730 C   0  0  0  0  0  0  0  0  0  0  0  0
    9.7530    0.3290   27.8470 Cl  0  0  0  0  0  0  0  0  0  0  0  0
    8.9590   -0.4630   25.4330 C   0  0  0  0  0  0  0  0  0  0  0  0
   10.0190   -0.6380   25.2530 H   0  0  0  0  0  0  0  0  0  0  0  0
    6.9000    0.5190   27.9280 H   0  0  0  0  0  0  0  0  0  0  0  0
    5.1990    0.0670   26.1610 H   0  0  0  0  0  0  0  0  0  0  0  0
    5.9380   -0.6110   23.8800 H   0  0  0  0  0  0  0  0  0  0  0  0
    7.8350   -1.5640   22.4840 H   0  0  0  0  0  0  0  0  0  0  0  0
    9.4950   -1.4420   23.0600 H   0  0  0  0  0  0  0  0  0  0  0  0
    7.9770    0.6680   21.1220 C   0  0  0  0  0  0  0  0  0  0  0  0
    8.1680    1.7180   20.5380 O   0  0  0  0  0  0  0  0  0  0  0  0
    6.9160   -0.3380   20.6590 C   0  0  0  0  0  0  0  0  0  0  0  0
    6.0290    0.1750   19.5690 C   0  0  0  0  0  0  0  0  0  0  0  0
    6.2810   -0.1230   18.2560 C   0  0  0  0  0  0  0  0  0  0  0  0
    5.5520    0.3190   17.2020 N   0  0  0  0  0  0  0  0  0  0  0  0
    4.5220    1.0930   17.4540 C   0  0  0  0  0  0  0  0  0  0  0  0
    4.1380    1.4640   18.7720 C   0  0  0  0  0  0  0  0  0  0  0  0
    3.0120    2.2720   19.0430 C   0  0  0  0  0  0  0  0  0  0  0  0
    2.2650    2.6700   18.0000 F   0  0  0  0  0  0  0  0  0  0  0  0
    2.6620    2.6510   20.3080 C   0  0  0  0  0  0  0  0  0  0  0  0
    3.4550    2.2120   21.3870 C   0  0  0  0  0  0  0  0  0  0  0  0
    4.5530    1.4140   21.1780 C   0  0  0  0  0  0  0  0  0  0  0  0
    4.9150    1.0130   19.8650 C   0  0  0  0  0  0  0  0  0  0  0  0
    5.1590    1.1000   22.0240 H   0  0  0  0  0  0  0  0  0  0  0  0
    3.1890    2.5130   22.3950 H   0  0  0  0  0  0  0  0  0  0  0  0
    1.7930    3.2800   20.4640 H   0  0  0  0  0  0  0  0  0  0  0  0
    3.9470    1.4620   16.6080 H   0  0  0  0  0  0  0  0  0  0  0  0
    7.1180   -0.7720   17.9930 H   0  0  0  0  0  0  0  0  0  0  0  0
    7.4510   -1.2340   20.3230 H   0  0  0  0  0  0  0  0  0  0  0  0
    6.3010   -0.6280   21.5170 H   0  0  0  0  0  0  0  0  0  0  0  0
    9.1100    2.6000   23.0530 C   0  0  0  0  0  0  0  0  0  0  0  0
    9.9360    3.5710   23.6300 C   0  0  0  0  0  0  0  0  0  0  0  0
    8.0830    2.8410   22.8080 H   0  0  0  0  0  0  0  0  0  0  0  0
   11.3110    0.0070   22.8860 H   0  0  0  0  0  0  0  0  0  0  0  0
   12.8350    1.7830   23.6890 H   0  0  0  0  0  0  0  0  0  0  0  0
   12.4550    5.0250   23.0610 H   0  0  0  0  0  0  0  0  0  0  0  0
   13.2300    4.1270   24.3570 H   0  0  0  0  0  0  0  0  0  0  0  0
   12.2110    6.3410   25.1990 H   0  0  0  0  0  0  0  0  0  0  0  0
   11.5390    4.9630   25.9890 H   0  0  0  0  0  0  0  0  0  0  0  0
   10.4340    6.6110   23.6370 H   0  0  0  0  0  0  0  0  0  0  0  0
    9.7410    6.4740   25.2500 H   0  0  0  0  0  0  0  0  0  0  0  0
    6.6890    6.5160   24.7050 H   0  0  0  0  0  0  0  0  0  0  0  0
    8.2010    7.1680   24.0620 H   0  0  0  0  0  0  0  0  0  0  0  0
    6.3770    7.4950   22.4240 H   0  0  0  0  0  0  0  0  0  0  0  0
    7.5850    6.3940   21.7590 H   0  0  0  0  0  0  0  0  0  0  0  0
    6.0470    5.7630   22.3740 H   0  0  0  0  0  0  0  0  0  0  0  0
  1  2  1  0
  1 62  1  0
  1 63  1  0
  1 64  1  0
  2  3  1  0
  2 60  1  0
  2 61  1  0
  3  4  2  0
  3  5  1  0
  5  6  1  0
  5 50  1  0
  6  7  1  0
  6 58  1  0
  6 59  1  0
  7  8  1  0
  7 56  1  0
  7 57  1  0
  8  9  1  0
  8 54  1  0
  8 55  1  0
  9 10  1  0
  9 50  2  0
 10 11  2  0
 10 53  1  0
 11 12  1  0
 11 52  1  0
 12 13  1  0
 12 49  2  0
 13 14  1  0
 13 28  1  0
 14 15  1  0
 14 26  1  0
 14 27  1  0
 15 16  2  0
 15 21  1  0
 16 17  1  0
 16 25  1  0
 17 18  2  0
 17 24  1  0
 18 19  1  0
 18 23  1  0
 19 20  1  0
 19 21  2  0
 21 22  1  0
 28 29  2  0
 28 30  1  0
 30 31  1  0
 30 47  1  0
 30 48  1  0
 31 32  2  0
 31 41  1  0
 32 33  1  0
 32 46  1  0
 33 34  2  0
 34 35  1  0
 34 45  1  0
 35 36  1  0
 35 41  2  0
 36 37  1  0
 36 38  2  0
 38 39  1  0
 38 44  1  0
 39 40  2  0
 39 43  1  0
 40 41  1  0
 40 42  1  0
 49 50  1  0
 49 51  1  0
M  END
>  <MODEL>  (70) 
       1

>  <ApoScore>  (70) 
21.8257

$$$$
mol70_score_29.4023
     RDKit          3D

 57 62  0  0  1  0  0  0  0  0999 V2000
    9.6400    0.0380   23.1110 C   0  0  0  0  0  0  0  0  0  0  0  0
    8.2420   -0.3830   22.6860 C   0  0  1  0  0  0  0  0  0  0  0  0
    7.7590    0.4110   21.4660 C   0  0  0  0  0  0  0  0  0  0  0  0
    6.7700   -0.4610   20.8690 N   0  0  0  0  0  0  0  0  0  0  0  0
    6.0140   -0.0210   19.7530 C   0  0  0  0  0  0  0  0  0  0  0  0
    6.3560   -0.3470   18.4640 C   0  0  0  0  0  0  0  0  0  0  0  0
    5.7430    0.1640   17.3630 N   0  0  0  0  0  0  0  0  0  0  0  0
    4.7600    1.0140   17.5480 C   0  0  0  0  0  0  0  0  0  0  0  0
    4.2870    1.4140   18.8310 C   0  0  0  0  0  0  0  0  0  0  0  0
    3.1970    2.3090   18.9990 C   0  0  0  0  0  0  0  0  0  0  0  0
    2.7730    2.6550   20.2540 C   0  0  0  0  0  0  0  0  0  0  0  0
    3.4230    2.1380   21.3970 C   0  0  0  0  0  0  0  0  0  0  0  0
    4.4830    1.2770   21.2590 C   0  0  0  0  0  0  0  0  0  0  0  0
    4.9350    0.8920   19.9690 C   0  0  0  0  0  0  0  0  0  0  0  0
    4.9780    0.8720   22.1340 H   0  0  0  0  0  0  0  0  0  0  0  0
    3.0870    2.4270   22.3880 H   0  0  0  0  0  0  0  0  0  0  0  0
    1.9340    3.3340   20.3820 H   0  0  0  0  0  0  0  0  0  0  0  0
    2.7110    2.7110   18.1140 H   0  0  0  0  0  0  0  0  0  0  0  0
    4.2800    1.4270   16.6590 H   0  0  0  0  0  0  0  0  0  0  0  0
    7.1720   -1.0390   18.2640 H   0  0  0  0  0  0  0  0  0  0  0  0
    6.8860   -1.7810   21.2630 C   0  0  0  0  0  0  0  0  0  0  0  0
    6.1970   -2.6840   20.8300 O   0  0  0  0  0  0  0  0  0  0  0  0
    8.0380   -1.8920   22.2920 C   0  0  1  0  0  0  0  0  0  0  0  0
    9.2250   -2.5660   21.5530 C   0  0  0  0  0  0  0  0  0  0  0  0
   10.3620   -2.8300   22.4270 N   0  0  0  0  0  0  0  0  0  0  0  0
   11.6590   -2.5720   21.9770 C   0  0  0  0  0  0  0  0  0  0  0  0
   12.4910   -1.6580   22.6230 C   0  0  0  0  0  0  0  0  0  0  0  0
   13.3040   -1.6930   23.7150 N   0  0  0  0  0  0  0  0  0  0  0  0
   13.9190   -0.5500   23.8380 N   0  0  0  0  0  0  0  0  0  0  0  0
   13.5600    0.2370   22.8510 N   0  0  0  0  0  0  0  0  0  0  0  0
   13.8040    1.6520   22.6920 C   0  0  0  0  0  0  0  0  0  0  0  0
   14.8720    1.8380   22.6200 H   0  0  0  0  0  0  0  0  0  0  0  0
   13.3020    1.9520   21.7800 H   0  0  0  0  0  0  0  0  0  0  0  0
   13.3500    2.2370   23.4910 H   0  0  0  0  0  0  0  0  0  0  0  0
   12.6680   -0.4180   22.0910 N   0  0  0  0  0  0  0  0  0  0  0  0
   11.8950   -2.8410   20.9540 H   0  0  0  0  0  0  0  0  0  0  0  0
   12.1530    0.0530   21.3780 H   0  0  0  0  0  0  0  0  0  0  0  0
   10.1920   -3.4440   23.6420 C   0  0  0  0  0  0  0  0  0  0  0  0
   11.1220   -3.9090   24.2760 O   0  0  0  0  0  0  0  0  0  0  0  0
    8.7810   -3.4920   24.1230 C   0  0  0  0  0  0  0  0  0  0  0  0
    8.5480   -4.2440   25.2740 C   0  0  0  0  0  0  0  0  0  0  0  0
    7.2720   -4.3690   25.7890 C   0  0  0  0  0  0  0  0  0  0  0  0
    6.2440   -3.7060   25.1270 C   0  0  0  0  0  0  0  0  0  0  0  0
    4.9980   -3.8320   25.6120 F   0  0  0  0  0  0  0  0  0  0  0  0
    6.4430   -2.9360   23.9950 C   0  0  0  0  0  0  0  0  0  0  0  0
    7.7390   -2.8010   23.4790 C   0  0  0  0  0  0  0  0  0  0  0  0
    5.5890   -2.4650   23.5170 H   0  0  0  0  0  0  0  0  0  0  0  0
    7.0620   -4.9760   26.6650 H   0  0  0  0  0  0  0  0  0  0  0  0
    9.4000   -4.7260   25.7450 H   0  0  0  0  0  0  0  0  0  0  0  0
    9.5910   -1.9440   20.7370 H   0  0  0  0  0  0  0  0  0  0  0  0
    8.8290   -3.5080   21.1550 H   0  0  0  0  0  0  0  0  0  0  0  0
    7.3200    1.3800   21.7320 H   0  0  0  0  0  0  0  0  0  0  0  0
    8.5890    0.6200   20.7680 H   0  0  0  0  0  0  0  0  0  0  0  0
    7.5430   -0.1950   23.5150 H   0  0  0  0  0  0  0  0  0  0  0  0
   10.3270   -0.0440   22.2660 H   0  0  0  0  0  0  0  0  0  0  0  0
   10.0140   -0.5880   23.9270 H   0  0  0  0  0  0  0  0  0  0  0  0
    9.6530    1.0830   23.4390 H   0  0  0  0  0  0  0  0  0  0  0  0
  1  2  1  0
  1 55  1  0
  1 56  1  0
  1 57  1  0
  2  3  1  0
  2 23  1  0
  2 54  1  1
  3  4  1  0
  3 52  1  0
  3 53  1  0
  4  5  1  0
  4 21  1  0
  5  6  2  0
  5 14  1  0
  6  7  1  0
  6 20  1  0
  7  8  2  0
  8  9  1  0
  8 19  1  0
  9 10  1  0
  9 14  2  0
 10 11  2  0
 10 18  1  0
 11 12  1  0
 11 17  1  0
 12 13  2  0
 12 16  1  0
 13 14  1  0
 13 15  1  0
 21 22  2  0
 23 21  1  0
 23 24  1  6
 23 46  1  0
 24 25  1  0
 24 50  1  0
 24 51  1  0
 25 26  1  0
 25 38  1  0
 26 27  1  0
 26 36  1  0
 26 37  1  0
 27 28  1  0
 27 35  2  0
 28 29  2  0
 29 30  1  0
 30 31  1  0
 30 35  1  0
 31 32  1  0
 31 33  1  0
 31 34  1  0
 38 39  2  0
 38 40  1  0
 40 41  2  0
 40 46  1  0
 41 42  1  0
 41 49  1  0
 42 43  2  0
 42 48  1  0
 43 44  1  0
 43 45  1  0
 45 46  2  0
 45 47  1  0
M  END
>  <MODEL>  (71) 
       1

>  <ApoScore>  (71) 
29.4023

$$$$
mol71_score_23.0276
     RDKit          3D

 59 64  0  0  1  0  0  0  0  0999 V2000
    7.2830   -2.6600   23.8730 C   0  0  0  0  0  0  0  0  0  0  0  0
    7.6400   -1.9110   22.5980 C   0  0  1  0  0  0  0  0  0  0  0  0
    6.4600   -1.5370   21.6840 C   0  0  0  0  0  0  0  0  0  0  0  0
    6.9830   -0.3880   20.9660 N   0  0  0  0  0  0  0  0  0  0  0  0
    6.2730    0.1970   19.8930 C   0  0  0  0  0  0  0  0  0  0  0  0
    6.6490   -0.0740   18.6030 C   0  0  0  0  0  0  0  0  0  0  0  0
    5.9630    0.3340   17.5060 N   0  0  0  0  0  0  0  0  0  0  0  0
    4.8710    1.0320   17.6980 C   0  0  0  0  0  0  0  0  0  0  0  0
    4.3930    1.4260   18.9800 C   0  0  0  0  0  0  0  0  0  0  0  0
    3.2430    2.2460   19.1350 C   0  0  0  0  0  0  0  0  0  0  0  0
    2.8170    2.6170   20.3780 C   0  0  0  0  0  0  0  0  0  0  0  0
    3.5180    2.1840   21.5270 C   0  0  0  0  0  0  0  0  0  0  0  0
    4.6350    1.3930   21.4080 C   0  0  0  0  0  0  0  0  0  0  0  0
    5.1050    0.9940   20.1240 C   0  0  0  0  0  0  0  0  0  0  0  0
    5.1720    1.0950   22.3060 H   0  0  0  0  0  0  0  0  0  0  0  0
    3.1810    2.4870   22.5130 H   0  0  0  0  0  0  0  0  0  0  0  0
    1.9430    3.2550   20.4900 H   0  0  0  0  0  0  0  0  0  0  0  0
    2.7240    2.5810   18.2390 H   0  0  0  0  0  0  0  0  0  0  0  0
    4.3060    1.3310   16.8120 H   0  0  0  0  0  0  0  0  0  0  0  0
    7.5430   -0.6650   18.4190 H   0  0  0  0  0  0  0  0  0  0  0  0
    8.1410    0.1490   21.4920 C   0  0  0  0  0  0  0  0  0  0  0  0
    8.7630    1.0600   20.9880 O   0  0  0  0  0  0  0  0  0  0  0  0
    8.4080   -0.5820   22.8360 C   0  0  1  0  0  0  0  0  0  0  0  0
    7.7440    0.2240   23.9870 C   0  0  0  0  0  0  0  0  0  0  0  0
    8.4680    1.4530   24.2430 N   0  0  0  0  0  0  0  0  0  0  0  0
    7.7800    2.7320   24.0570 C   0  0  0  0  0  0  0  0  0  0  0  0
    6.6130    2.8560   24.9890 C   0  0  0  0  0  0  0  0  0  0  0  0
    5.3400    2.7290   24.6750 N   0  0  0  0  0  0  0  0  0  0  0  0
    4.6690    2.8050   25.8720 C   0  0  0  0  0  0  0  0  0  0  0  0
    5.5510    2.9730   26.9050 C   0  0  0  0  0  0  0  0  0  0  0  0
    6.7960    3.0100   26.3250 N   0  0  0  0  0  0  0  0  0  0  0  0
    8.0820    3.0540   26.9820 C   0  0  0  0  0  0  0  0  0  0  0  0
    7.9430    3.0010   28.0610 H   0  0  0  0  0  0  0  0  0  0  0  0
    8.6750    2.1960   26.6550 H   0  0  0  0  0  0  0  0  0  0  0  0
    8.6170    3.9750   26.7340 H   0  0  0  0  0  0  0  0  0  0  0  0
    5.4300    3.0640   27.9720 H   0  0  0  0  0  0  0  0  0  0  0  0
    3.5920    2.7310   25.9290 H   0  0  0  0  0  0  0  0  0  0  0  0
    7.4310    2.8320   23.0220 H   0  0  0  0  0  0  0  0  0  0  0  0
    8.5310    3.5090   24.2300 H   0  0  0  0  0  0  0  0  0  0  0  0
    9.8180    1.4200   24.4360 C   0  0  0  0  0  0  0  0  0  0  0  0
   10.4570    2.3940   24.8190 O   0  0  0  0  0  0  0  0  0  0  0  0
   10.5050    0.1340   24.0840 C   0  0  0  0  0  0  0  0  0  0  0  0
   11.8270   -0.0670   24.5020 C   0  0  0  0  0  0  0  0  0  0  0  0
   12.6020   -1.0410   23.9000 C   0  0  0  0  0  0  0  0  0  0  0  0
   12.0330   -1.7970   22.8840 C   0  0  0  0  0  0  0  0  0  0  0  0
   12.8220   -2.6340   22.1850 F   0  0  0  0  0  0  0  0  0  0  0  0
   10.6940   -1.7020   22.5550 C   0  0  0  0  0  0  0  0  0  0  0  0
    9.8860   -0.7350   23.1710 C   0  0  0  0  0  0  0  0  0  0  0  0
   10.3220   -2.3740   21.7960 H   0  0  0  0  0  0  0  0  0  0  0  0
   13.6500   -1.1850   24.1360 H   0  0  0  0  0  0  0  0  0  0  0  0
   12.2460    0.5780   25.2710 H   0  0  0  0  0  0  0  0  0  0  0  0
    7.7320   -0.3730   24.9100 H   0  0  0  0  0  0  0  0  0  0  0  0
    6.7090    0.4790   23.7420 H   0  0  0  0  0  0  0  0  0  0  0  0
    5.5450   -1.2800   22.2420 H   0  0  0  0  0  0  0  0  0  0  0  0
    6.1930   -2.3310   20.9770 H   0  0  0  0  0  0  0  0  0  0  0  0
    8.3160   -2.5200   21.9920 H   0  0  0  0  0  0  0  0  0  0  0  0
    6.9230   -3.6690   23.6620 H   0  0  0  0  0  0  0  0  0  0  0  0
    8.1690   -2.7260   24.5150 H   0  0  0  0  0  0  0  0  0  0  0  0
    6.5010   -2.1340   24.4350 H   0  0  0  0  0  0  0  0  0  0  0  0
  1  2  1  0
  1 57  1  0
  1 58  1  0
  1 59  1  0
  2  3  1  0
  2 23  1  0
  2 56  1  6
  3  4  1  0
  3 54  1  0
  3 55  1  0
  4  5  1  0
  4 21  1  0
  5  6  2  0
  5 14  1  0
  6  7  1  0
  6 20  1  0
  7  8  2  0
  8  9  1  0
  8 19  1  0
  9 10  1  0
  9 14  2  0
 10 11  2  0
 10 18  1  0
 11 12  1  0
 11 17  1  0
 12 13  2  0
 12 16  1  0
 13 14  1  0
 13 15  1  0
 21 22  2  0
 23 21  1  0
 23 24  1  1
 23 48  1  0
 24 25  1  0
 24 52  1  0
 24 53  1  0
 25 26  1  0
 25 40  1  0
 26 27  1  0
 26 38  1  0
 26 39  1  0
 27 28  2  0
 27 31  1  0
 28 29  1  0
 29 30  2  0
 29 37  1  0
 30 31  1  0
 30 36  1  0
 31 32  1  0
 32 33  1  0
 32 34  1  0
 32 35  1  0
 40 41  2  0
 40 42  1  0
 42 43  2  0
 42 48  1  0
 43 44  1  0
 43 51  1  0
 44 45  2  0
 44 50  1  0
 45 46  1  0
 45 47  1  0
 47 48  2  0
 47 49  1  0
M  END
>  <MODEL>  (72) 
       1

>  <ApoScore>  (72) 
23.0276

$$$$
mol72_score_23.4479
     RDKit          3D

 60 64  0  0  1  0  0  0  0  0999 V2000
    6.5520    4.2500   21.5460 C   0  0  0  0  0  0  0  0  0  0  0  0
    7.5010    3.7110   22.5050 N   0  0  0  0  0  0  0  0  0  0  0  0
    7.0520    3.1090   23.6390 C   0  0  0  0  0  0  0  0  0  0  0  0
    5.8640    2.9720   23.8940 O   0  0  0  0  0  0  0  0  0  0  0  0
    8.1360    2.6500   24.6120 C   0  0  0  0  0  0  0  0  0  0  0  0
    8.7390    1.3720   24.2610 N   0  0  0  0  0  0  0  0  0  0  0  0
    7.8990    0.2200   23.9650 C   0  0  0  0  0  0  0  0  0  0  0  0
    8.4790   -0.6380   22.7960 C   0  0  2  0  0  0  0  0  0  0  0  0
    8.1550    0.0980   21.4690 C   0  0  0  0  0  0  0  0  0  0  0  0
    8.7500    1.0180   20.9490 O   0  0  0  0  0  0  0  0  0  0  0  0
    6.9750   -0.4350   20.9880 N   0  0  0  0  0  0  0  0  0  0  0  0
    6.2710    0.1400   19.9030 C   0  0  0  0  0  0  0  0  0  0  0  0
    6.6920   -0.0970   18.6210 C   0  0  0  0  0  0  0  0  0  0  0  0
    6.0300    0.3300   17.5210 N   0  0  0  0  0  0  0  0  0  0  0  0
    4.9260    1.0170   17.6980 C   0  0  0  0  0  0  0  0  0  0  0  0
    4.4070    1.3820   18.9730 C   0  0  0  0  0  0  0  0  0  0  0  0
    3.2540    2.1980   19.1250 C   0  0  0  0  0  0  0  0  0  0  0  0
    2.8210    2.5690   20.3710 C   0  0  0  0  0  0  0  0  0  0  0  0
    3.5120    2.1330   21.5220 C   0  0  0  0  0  0  0  0  0  0  0  0
    4.6190    1.3270   21.3980 C   0  0  0  0  0  0  0  0  0  0  0  0
    5.0970    0.9290   20.1210 C   0  0  0  0  0  0  0  0  0  0  0  0
    5.1750    1.0540   22.2880 H   0  0  0  0  0  0  0  0  0  0  0  0
    3.1970    2.4590   22.5090 H   0  0  0  0  0  0  0  0  0  0  0  0
    1.9530    3.2120   20.4790 H   0  0  0  0  0  0  0  0  0  0  0  0
    2.7400    2.5420   18.2320 H   0  0  0  0  0  0  0  0  0  0  0  0
    4.3930    1.3380   16.8020 H   0  0  0  0  0  0  0  0  0  0  0  0
    7.5960   -0.6780   18.4480 H   0  0  0  0  0  0  0  0  0  0  0  0
    6.4660   -1.5670   21.7350 C   0  0  0  0  0  0  0  0  0  0  0  0
    7.6720   -1.9600   22.6000 C   0  0  2  0  0  0  0  0  0  0  0  0
    7.2910   -2.6690   23.8000 N   0  0  0  0  0  0  0  0  0  0  0  0
    8.1620   -3.4750   24.4980 C   0  0  0  0  0  0  0  0  0  0  0  0
    9.1430   -3.9820   23.9860 O   0  0  0  0  0  0  0  0  0  0  0  0
    7.7530   -3.6830   25.9440 C   0  0  0  0  0  0  0  0  0  0  0  0
    6.8490   -4.3010   26.0000 H   0  0  0  0  0  0  0  0  0  0  0  0
    8.5600   -4.1760   26.4880 H   0  0  0  0  0  0  0  0  0  0  0  0
    7.5310   -2.7220   26.4260 H   0  0  0  0  0  0  0  0  0  0  0  0
    6.5130   -2.2830   24.3130 H   0  0  0  0  0  0  0  0  0  0  0  0
    8.3120   -2.6370   22.0340 H   0  0  0  0  0  0  0  0  0  0  0  0
    6.1670   -2.3650   21.0490 H   0  0  0  0  0  0  0  0  0  0  0  0
    5.5830   -1.3050   22.3440 H   0  0  0  0  0  0  0  0  0  0  0  0
    9.9580   -0.8670   23.0470 C   0  0  0  0  0  0  0  0  0  0  0  0
   10.7040   -1.8070   22.3180 C   0  0  0  0  0  0  0  0  0  0  0  0
   12.0430   -2.0050   22.6070 C   0  0  0  0  0  0  0  0  0  0  0  0
   12.9780   -3.1150   21.6460 Cl  0  0  0  0  0  0  0  0  0  0  0  0
   12.6970   -1.3080   23.6290 C   0  0  0  0  0  0  0  0  0  0  0  0
   11.9890   -0.3320   24.2980 C   0  0  0  0  0  0  0  0  0  0  0  0
   10.6530   -0.0870   23.9800 C   0  0  0  0  0  0  0  0  0  0  0  0
   10.0760    1.1920   24.4880 C   0  0  0  0  0  0  0  0  0  0  0  0
   10.7930    2.0290   25.0150 O   0  0  0  0  0  0  0  0  0  0  0  0
   12.4750    0.2970   25.0370 H   0  0  0  0  0  0  0  0  0  0  0  0
   13.7300   -1.5280   23.8750 H   0  0  0  0  0  0  0  0  0  0  0  0
   10.2390   -2.3930   21.5310 H   0  0  0  0  0  0  0  0  0  0  0  0
    6.9150    0.6070   23.6880 H   0  0  0  0  0  0  0  0  0  0  0  0
    7.7900   -0.4040   24.8600 H   0  0  0  0  0  0  0  0  0  0  0  0
    8.9450    3.3820   24.6280 H   0  0  0  0  0  0  0  0  0  0  0  0
    7.6940    2.6420   25.6160 H   0  0  0  0  0  0  0  0  0  0  0  0
    8.4530    3.5360   22.2090 H   0  0  0  0  0  0  0  0  0  0  0  0
    5.7360    4.7180   22.1040 H   0  0  0  0  0  0  0  0  0  0  0  0
    7.0330    5.0140   20.9310 H   0  0  0  0  0  0  0  0  0  0  0  0
    6.1320    3.4650   20.8980 H   0  0  0  0  0  0  0  0  0  0  0  0
  1  2  1  0
  1 58  1  0
  1 59  1  0
  1 60  1  0
  2  3  1  0
  2 57  1  0
  3  4  2  0
  3  5  1  0
  5  6  1  0
  5 55  1  0
  5 56  1  0
  6  7  1  0
  6 48  1  0
  8  7  1  1
  7 53  1  0
  7 54  1  0
  8  9  1  0
  8 29  1  0
  8 41  1  0
  9 10  2  0
  9 11  1  0
 11 12  1  0
 11 28  1  0
 12 13  2  0
 12 21  1  0
 13 14  1  0
 13 27  1  0
 14 15  2  0
 15 16  1  0
 15 26  1  0
 16 17  1  0
 16 21  2  0
 17 18  2  0
 17 25  1  0
 18 19  1  0
 18 24  1  0
 19 20  2  0
 19 23  1  0
 20 21  1  0
 20 22  1  0
 28 29  1  0
 28 39  1  0
 28 40  1  0
 29 30  1  0
 29 38  1  6
 30 31  1  0
 30 37  1  0
 31 32  2  0
 31 33  1  0
 33 34  1  0
 33 35  1  0
 33 36  1  0
 41 42  1  0
 41 47  2  0
 42 43  2  0
 42 52  1  0
 43 44  1  0
 43 45  1  0
 45 46  2  0
 45 51  1  0
 46 47  1  0
 46 50  1  0
 47 48  1  0
 48 49  2  0
M  END
>  <MODEL>  (73) 
       1

>  <ApoScore>  (73) 
23.4479

$$$$
mol73_score_21.4940
     RDKit          3D

 56 61  0  0  1  0  0  0  0  0999 V2000
    7.1100   -2.5610   23.9650 C   0  0  0  0  0  0  0  0  0  0  0  0
    7.5400   -1.9240   22.6440 C   0  0  1  0  0  0  0  0  0  0  0  0
    6.3780   -1.5490   21.7010 C   0  0  0  0  0  0  0  0  0  0  0  0
    6.9230   -0.4440   20.9340 N   0  0  0  0  0  0  0  0  0  0  0  0
    6.2190    0.1460   19.8530 C   0  0  0  0  0  0  0  0  0  0  0  0
    6.6080   -0.0910   18.5600 C   0  0  0  0  0  0  0  0  0  0  0  0
    5.9240    0.3440   17.4710 N   0  0  0  0  0  0  0  0  0  0  0  0
    4.8380    1.0490   17.6710 C   0  0  0  0  0  0  0  0  0  0  0  0
    4.3580    1.4270   18.9580 C   0  0  0  0  0  0  0  0  0  0  0  0
    3.2210    2.2600   19.1370 C   0  0  0  0  0  0  0  0  0  0  0  0
    2.8220    2.6310   20.3920 C   0  0  0  0  0  0  0  0  0  0  0  0
    3.5210    2.1690   21.5290 C   0  0  0  0  0  0  0  0  0  0  0  0
    4.6060    1.3400   21.3820 C   0  0  0  0  0  0  0  0  0  0  0  0
    5.0630    0.9600   20.0900 C   0  0  0  0  0  0  0  0  0  0  0  0
    5.1250    0.9690   22.2610 H   0  0  0  0  0  0  0  0  0  0  0  0
    3.2030    2.4700   22.5240 H   0  0  0  0  0  0  0  0  0  0  0  0
    1.9680    3.2890   20.5210 H   0  0  0  0  0  0  0  0  0  0  0  0
    2.6930    2.6110   18.2530 H   0  0  0  0  0  0  0  0  0  0  0  0
    4.2810    1.3660   16.7880 H   0  0  0  0  0  0  0  0  0  0  0  0
    7.5030   -0.6770   18.3630 H   0  0  0  0  0  0  0  0  0  0  0  0
    8.1190    0.0540   21.4080 C   0  0  0  0  0  0  0  0  0  0  0  0
    8.7540    0.9270   20.8520 O   0  0  0  0  0  0  0  0  0  0  0  0
    8.4140   -0.6360   22.7650 C   0  0  1  0  0  0  0  0  0  0  0  0
    7.9040    0.2850   23.9130 C   0  0  0  0  0  0  0  0  0  0  0  0
    8.7820    1.4230   24.1510 N   0  0  0  0  0  0  0  0  0  0  0  0
    8.2710    2.7710   24.3780 C   0  0  0  0  0  0  0  0  0  0  0  0
    7.1320    2.9400   25.4270 C   0  0  0  0  0  0  0  0  0  0  0  0
    6.1230    3.3220   24.3430 N   0  0  0  0  0  0  0  0  0  0  0  0
    7.2540    3.2720   23.3180 C   0  0  0  0  0  0  0  0  0  0  0  0
    7.0610    2.5580   22.5220 H   0  0  0  0  0  0  0  0  0  0  0  0
    7.4380    4.2440   22.8720 H   0  0  0  0  0  0  0  0  0  0  0  0
    5.3770    2.6170   24.1980 H   0  0  0  0  0  0  0  0  0  0  0  0
    5.6640    4.2370   24.4480 H   0  0  0  0  0  0  0  0  0  0  0  0
    7.2650    3.7430   26.1470 H   0  0  0  0  0  0  0  0  0  0  0  0
    6.8550    2.0360   25.9670 H   0  0  0  0  0  0  0  0  0  0  0  0
    9.1510    3.3980   24.5450 H   0  0  0  0  0  0  0  0  0  0  0  0
   10.0980    1.1550   24.4340 C   0  0  0  0  0  0  0  0  0  0  0  0
   10.8320    1.9130   25.0480 O   0  0  0  0  0  0  0  0  0  0  0  0
   10.6380   -0.1260   23.8650 C   0  0  0  0  0  0  0  0  0  0  0  0
   11.9960   -0.3740   24.0890 C   0  0  0  0  0  0  0  0  0  0  0  0
   12.6650   -1.3430   23.3710 C   0  0  0  0  0  0  0  0  0  0  0  0
   11.9480   -2.0510   22.4030 C   0  0  0  0  0  0  0  0  0  0  0  0
   12.8280   -3.1490   21.3770 Cl  0  0  0  0  0  0  0  0  0  0  0  0
   10.5840   -1.8680   22.2110 C   0  0  0  0  0  0  0  0  0  0  0  0
    9.8930   -0.9100   22.9770 C   0  0  0  0  0  0  0  0  0  0  0  0
   10.0900   -2.4410   21.4320 H   0  0  0  0  0  0  0  0  0  0  0  0
   13.7340   -1.5150   23.5080 H   0  0  0  0  0  0  0  0  0  0  0  0
   12.5230    0.2730   24.7840 H   0  0  0  0  0  0  0  0  0  0  0  0
    6.8930    0.6290   23.6790 H   0  0  0  0  0  0  0  0  0  0  0  0
    7.8410   -0.3040   24.8360 H   0  0  0  0  0  0  0  0  0  0  0  0
    5.4660   -1.2600   22.2470 H   0  0  0  0  0  0  0  0  0  0  0  0
    6.0950   -2.3640   21.0220 H   0  0  0  0  0  0  0  0  0  0  0  0
    8.1600   -2.6510   22.1090 H   0  0  0  0  0  0  0  0  0  0  0  0
    6.3750   -1.9450   24.4990 H   0  0  0  0  0  0  0  0  0  0  0  0
    7.9740   -2.6930   24.6270 H   0  0  0  0  0  0  0  0  0  0  0  0
    6.6550   -3.5450   23.8030 H   0  0  0  0  0  0  0  0  0  0  0  0
  1  2  1  0
  1 54  1  0
  1 55  1  0
  1 56  1  0
  2  3  1  0
  2 23  1  0
  2 53  1  6
  3  4  1  0
  3 51  1  0
  3 52  1  0
  4  5  1  0
  4 21  1  0
  5  6  2  0
  5 14  1  0
  6  7  1  0
  6 20  1  0
  7  8  2  0
  8  9  1  0
  8 19  1  0
  9 10  1  0
  9 14  2  0
 10 11  2  0
 10 18  1  0
 11 12  1  0
 11 17  1  0
 12 13  2  0
 12 16  1  0
 13 14  1  0
 13 15  1  0
 21 22  2  0
 23 21  1  0
 23 24  1  1
 23 45  1  0
 24 25  1  0
 24 49  1  0
 24 50  1  0
 25 26  1  0
 25 37  1  0
 26 27  1  0
 26 29  1  0
 26 36  1  0
 27 28  1  0
 27 34  1  0
 27 35  1  0
 28 29  1  0
 28 32  1  0
 28 33  1  0
 29 30  1  0
 29 31  1  0
 37 38  2  0
 37 39  1  0
 39 40  2  0
 39 45  1  0
 40 41  1  0
 40 48  1  0
 41 42  2  0
 41 47  1  0
 42 43  1  0
 42 44  1  0
 44 45  2  0
 44 46  1  0
M  CHG  1  28   1
M  END
>  <MODEL>  (74) 
       1

>  <ApoScore>  (74) 
21.4940

$$$$
mol74_score_23.1996
     RDKit          3D

 55 60  0  0  1  0  0  0  0  0999 V2000
    7.2600   -2.7420   23.7810 C   0  0  0  0  0  0  0  0  0  0  0  0
    7.6680   -1.9410   22.5450 C   0  0  1  0  0  0  0  0  0  0  0  0
    6.5050   -1.6050   21.5900 C   0  0  0  0  0  0  0  0  0  0  0  0
    6.9570   -0.3940   20.9410 N   0  0  0  0  0  0  0  0  0  0  0  0
    6.2360    0.1700   19.8590 C   0  0  0  0  0  0  0  0  0  0  0  0
    6.6100   -0.1120   18.5720 C   0  0  0  0  0  0  0  0  0  0  0  0
    5.9370    0.3110   17.4750 N   0  0  0  0  0  0  0  0  0  0  0  0
    4.8600    1.0330   17.6590 C   0  0  0  0  0  0  0  0  0  0  0  0
    4.3660    1.4140   18.9380 C   0  0  0  0  0  0  0  0  0  0  0  0
    3.2260    2.2500   19.0920 C   0  0  0  0  0  0  0  0  0  0  0  0
    2.7690    2.5790   20.3380 C   0  0  0  0  0  0  0  0  0  0  0  0
    3.4130    2.0620   21.4860 C   0  0  0  0  0  0  0  0  0  0  0  0
    4.5190    1.2550   21.3610 C   0  0  0  0  0  0  0  0  0  0  0  0
    5.0490    0.9400   20.0820 C   0  0  0  0  0  0  0  0  0  0  0  0
    5.0150    0.8920   22.2560 H   0  0  0  0  0  0  0  0  0  0  0  0
    3.0480    2.3280   22.4740 H   0  0  0  0  0  0  0  0  0  0  0  0
    1.9180    3.2470   20.4550 H   0  0  0  0  0  0  0  0  0  0  0  0
    2.7380    2.6250   18.1950 H   0  0  0  0  0  0  0  0  0  0  0  0
    4.3130    1.3480   16.7690 H   0  0  0  0  0  0  0  0  0  0  0  0
    7.4930   -0.7200   18.3890 H   0  0  0  0  0  0  0  0  0  0  0  0
    8.1070    0.1580   21.4680 C   0  0  0  0  0  0  0  0  0  0  0  0
    8.7040    1.0910   20.9780 O   0  0  0  0  0  0  0  0  0  0  0  0
    8.4020   -0.5890   22.8060 C   0  0  1  0  0  0  0  0  0  0  0  0
    7.7370    0.1980   23.9820 C   0  0  0  0  0  0  0  0  0  0  0  0
    8.4470    1.4230   24.3160 N   0  0  0  0  0  0  0  0  0  0  0  0
    7.7390    2.6480   24.6920 C   0  0  0  0  0  0  0  0  0  0  0  0
    7.5030    3.5940   23.5310 C   0  0  0  0  0  0  0  0  0  0  0  0
    8.3430    4.5830   22.9400 C   0  0  0  0  0  0  0  0  0  0  0  0
    7.5650    5.1350   21.9800 C   0  0  0  0  0  0  0  0  0  0  0  0
    6.3670    4.5420   21.9600 O   0  0  0  0  0  0  0  0  0  0  0  0
    6.3250    3.5860   22.9460 N   0  0  0  0  0  0  0  0  0  0  0  0
    7.6940    5.9370   21.2660 H   0  0  0  0  0  0  0  0  0  0  0  0
    9.3720    4.8030   23.1760 H   0  0  0  0  0  0  0  0  0  0  0  0
    6.7650    2.3920   25.1250 H   0  0  0  0  0  0  0  0  0  0  0  0
    8.3280    3.1300   25.4820 H   0  0  0  0  0  0  0  0  0  0  0  0
    9.8130    1.4260   24.3970 C   0  0  0  0  0  0  0  0  0  0  0  0
   10.4430    2.4010   24.7790 O   0  0  0  0  0  0  0  0  0  0  0  0
   10.5120    0.1650   23.9840 C   0  0  0  0  0  0  0  0  0  0  0  0
   11.8710    0.0600   24.2990 C   0  0  0  0  0  0  0  0  0  0  0  0
   12.6550   -0.9230   23.7260 C   0  0  0  0  0  0  0  0  0  0  0  0
   12.0460   -1.7590   22.7920 C   0  0  0  0  0  0  0  0  0  0  0  0
   12.8340   -2.6180   22.1230 F   0  0  0  0  0  0  0  0  0  0  0  0
   10.6940   -1.7230   22.5120 C   0  0  0  0  0  0  0  0  0  0  0  0
    9.8820   -0.7450   23.1230 C   0  0  0  0  0  0  0  0  0  0  0  0
   10.3210   -2.4280   21.7740 H   0  0  0  0  0  0  0  0  0  0  0  0
   13.7120   -1.0200   23.9420 H   0  0  0  0  0  0  0  0  0  0  0  0
   12.3050    0.8050   24.9580 H   0  0  0  0  0  0  0  0  0  0  0  0
    7.7180   -0.4510   24.8680 H   0  0  0  0  0  0  0  0  0  0  0  0
    6.7050    0.4560   23.7190 H   0  0  0  0  0  0  0  0  0  0  0  0
    6.3250   -2.3810   20.8320 H   0  0  0  0  0  0  0  0  0  0  0  0
    5.5550   -1.4380   22.1180 H   0  0  0  0  0  0  0  0  0  0  0  0
    8.3720   -2.5470   21.9680 H   0  0  0  0  0  0  0  0  0  0  0  0
    8.1050   -2.8530   24.4710 H   0  0  0  0  0  0  0  0  0  0  0  0
    6.9130   -3.7450   23.5070 H   0  0  0  0  0  0  0  0  0  0  0  0
    6.4450   -2.2530   24.3290 H   0  0  0  0  0  0  0  0  0  0  0  0
  1  2  1  0
  1 53  1  0
  1 54  1  0
  1 55  1  0
  2  3  1  0
  2 23  1  0
  2 52  1  6
  3  4  1  0
  3 50  1  0
  3 51  1  0
  4  5  1  0
  4 21  1  0
  5  6  2  0
  5 14  1  0
  6  7  1  0
  6 20  1  0
  7  8  2  0
  8  9  1  0
  8 19  1  0
  9 10  1  0
  9 14  2  0
 10 11  2  0
 10 18  1  0
 11 12  1  0
 11 17  1  0
 12 13  2  0
 12 16  1  0
 13 14  1  0
 13 15  1  0
 21 22  2  0
 23 21  1  0
 23 24  1  1
 23 44  1  0
 24 25  1  0
 24 48  1  0
 24 49  1  0
 25 26  1  0
 25 36  1  0
 26 27  1  0
 26 34  1  0
 26 35  1  0
 27 28  1  0
 27 31  2  0
 28 29  2  0
 28 33  1  0
 29 30  1  0
 29 32  1  0
 30 31  1  0
 36 37  2  0
 36 38  1  0
 38 39  2  0
 38 44  1  0
 39 40  1  0
 39 47  1  0
 40 41  2  0
 40 46  1  0
 41 42  1  0
 41 43  1  0
 43 44  2  0
 43 45  1  0
M  END
>  <MODEL>  (75) 
       1

>  <ApoScore>  (75) 
23.1996

$$$$
mol75_score_24.4915
     RDKit          3D

 70 75  0  0  1  0  0  0  0  0999 V2000
   11.4360    5.4920   25.7860 C   0  0  0  0  0  0  0  0  0  0  0  0
   11.8260    5.0310   24.5150 O   0  0  0  0  0  0  0  0  0  0  0  0
   10.8090    4.6620   23.6920 C   0  0  0  0  0  0  0  0  0  0  0  0
   11.1780    3.9880   22.5280 C   0  0  0  0  0  0  0  0  0  0  0  0
   10.1910    3.5830   21.6440 C   0  0  0  0  0  0  0  0  0  0  0  0
    8.8530    3.8670   21.8880 C   0  0  0  0  0  0  0  0  0  0  0  0
    8.4910    4.5720   23.0280 C   0  0  0  0  0  0  0  0  0  0  0  0
    7.0270    4.7870   23.3530 C   0  0  0  0  0  0  0  0  0  0  0  0
    6.4720    3.5120   23.7870 N   0  0  0  0  0  0  0  0  0  0  0  0
    6.5200    3.2470   25.1300 C   0  0  0  0  0  0  0  0  0  0  0  0
    6.5430    4.1140   25.9880 O   0  0  0  0  0  0  0  0  0  0  0  0
    6.5170    1.7520   25.4720 C   0  0  0  0  0  0  0  0  0  0  0  0
    7.5700    1.0380   24.7650 N   0  0  0  0  0  0  0  0  0  0  0  0
    7.3380   -0.2470   24.1130 C   0  0  0  0  0  0  0  0  0  0  0  0
    8.1740   -0.3910   22.8010 C   0  0  2  0  0  0  0  0  0  0  0  0
    7.4260    0.4170   21.7260 C   0  0  0  0  0  0  0  0  0  0  0  0
    7.2420    1.6160   21.7580 O   0  0  0  0  0  0  0  0  0  0  0  0
    6.8960   -0.4170   20.7840 N   0  0  0  0  0  0  0  0  0  0  0  0
    6.0820    0.0410   19.7190 C   0  0  0  0  0  0  0  0  0  0  0  0
    6.3760   -0.3000   18.4210 C   0  0  0  0  0  0  0  0  0  0  0  0
    5.7210    0.1780   17.3360 N   0  0  0  0  0  0  0  0  0  0  0  0
    4.7190    0.9990   17.5490 C   0  0  0  0  0  0  0  0  0  0  0  0
    4.2610    1.3710   18.8440 C   0  0  0  0  0  0  0  0  0  0  0  0
    3.1650    2.2540   19.0300 C   0  0  0  0  0  0  0  0  0  0  0  0
    2.7530    2.6020   20.2870 C   0  0  0  0  0  0  0  0  0  0  0  0
    3.4020    2.0610   21.4190 C   0  0  0  0  0  0  0  0  0  0  0  0
    4.4450    1.1880   21.2660 C   0  0  0  0  0  0  0  0  0  0  0  0
    4.9360    0.8590   19.9700 C   0  0  0  0  0  0  0  0  0  0  0  0
    4.9190    0.7640   22.1430 H   0  0  0  0  0  0  0  0  0  0  0  0
    3.0920    2.3490   22.4190 H   0  0  0  0  0  0  0  0  0  0  0  0
    1.9250    3.2910   20.4240 H   0  0  0  0  0  0  0  0  0  0  0  0
    2.6720    2.6600   18.1520 H   0  0  0  0  0  0  0  0  0  0  0  0
    4.2140    1.4070   16.6730 H   0  0  0  0  0  0  0  0  0  0  0  0
    7.2110   -0.9690   18.2150 H   0  0  0  0  0  0  0  0  0  0  0  0
    6.9830   -1.8050   21.1820 C   0  0  0  0  0  0  0  0  0  0  0  0
    8.1260   -1.8280   22.2060 C   0  0  2  0  0  0  0  0  0  0  0  0
    8.0430   -2.9740   23.2110 C   0  0  0  0  0  0  0  0  0  0  0  0
    7.1030   -2.9360   23.7710 H   0  0  0  0  0  0  0  0  0  0  0  0
    8.0860   -3.9460   22.7070 H   0  0  0  0  0  0  0  0  0  0  0  0
    8.8670   -2.9350   23.9340 H   0  0  0  0  0  0  0  0  0  0  0  0
    9.0500   -1.9560   21.6430 H   0  0  0  0  0  0  0  0  0  0  0  0
    7.1860   -2.4010   20.3000 H   0  0  0  0  0  0  0  0  0  0  0  0
    6.0450   -2.1540   21.6340 H   0  0  0  0  0  0  0  0  0  0  0  0
    9.5950    0.1120   23.0340 C   0  0  0  0  0  0  0  0  0  0  0  0
   10.6430   -0.1520   22.1320 C   0  0  0  0  0  0  0  0  0  0  0  0
   11.9310    0.2510   22.4340 C   0  0  0  0  0  0  0  0  0  0  0  0
   13.2430   -0.0350   21.3280 Cl  0  0  0  0  0  0  0  0  0  0  0  0
   12.2400    0.8940   23.6320 C   0  0  0  0  0  0  0  0  0  0  0  0
   11.2100    1.2090   24.4820 C   0  0  0  0  0  0  0  0  0  0  0  0
    9.9040    0.8740   24.1580 C   0  0  0  0  0  0  0  0  0  0  0  0
    8.8490    1.4440   25.0380 C   0  0  0  0  0  0  0  0  0  0  0  0
    9.1190    2.2610   25.9050 O   0  0  0  0  0  0  0  0  0  0  0  0
   11.3580    1.7730   25.3870 H   0  0  0  0  0  0  0  0  0  0  0  0
   13.2660    1.1690   23.8460 H   0  0  0  0  0  0  0  0  0  0  0  0
   10.4700   -0.6590   21.1890 H   0  0  0  0  0  0  0  0  0  0  0  0
    7.5920   -1.0670   24.8010 H   0  0  0  0  0  0  0  0  0  0  0  0
    6.2750   -0.3110   23.8500 H   0  0  0  0  0  0  0  0  0  0  0  0
    5.5540    1.3270   25.1640 H   0  0  0  0  0  0  0  0  0  0  0  0
    6.6320    1.6620   26.5580 H   0  0  0  0  0  0  0  0  0  0  0  0
    6.7380    2.7380   23.1780 H   0  0  0  0  0  0  0  0  0  0  0  0
    6.4580    5.1480   22.4900 H   0  0  0  0  0  0  0  0  0  0  0  0
    6.8880    5.4950   24.1740 H   0  0  0  0  0  0  0  0  0  0  0  0
    9.4640    4.9300   23.9540 C   0  0  0  0  0  0  0  0  0  0  0  0
    9.1330    5.3730   24.8890 H   0  0  0  0  0  0  0  0  0  0  0  0
    8.1190    3.5490   21.1540 H   0  0  0  0  0  0  0  0  0  0  0  0
   10.4190    3.0740   20.7160 H   0  0  0  0  0  0  0  0  0  0  0  0
   12.2360    3.7770   22.3940 H   0  0  0  0  0  0  0  0  0  0  0  0
   12.3320    5.8250   26.3050 H   0  0  0  0  0  0  0  0  0  0  0  0
   10.7620    6.3500   25.7000 H   0  0  0  0  0  0  0  0  0  0  0  0
   10.9460    4.6860   26.3480 H   0  0  0  0  0  0  0  0  0  0  0  0
  1  2  1  0
  1 68  1  0
  1 69  1  0
  1 70  1  0
  2  3  1  0
  3  4  2  0
  3 63  1  0
  4  5  1  0
  4 67  1  0
  5  6  2  0
  5 66  1  0
  6  7  1  0
  6 65  1  0
  7  8  1  0
  7 63  2  0
  8  9  1  0
  8 61  1  0
  8 62  1  0
  9 10  1  0
  9 60  1  0
 10 11  2  0
 10 12  1  0
 12 13  1  0
 12 58  1  0
 12 59  1  0
 13 14  1  0
 13 51  1  0
 15 14  1  1
 14 56  1  0
 14 57  1  0
 15 16  1  0
 15 36  1  0
 15 44  1  0
 16 17  2  0
 16 18  1  0
 18 19  1  0
 18 35  1  0
 19 20  2  0
 19 28  1  0
 20 21  1  0
 20 34  1  0
 21 22  2  0
 22 23  1  0
 22 33  1  0
 23 24  1  0
 23 28  2  0
 24 25  2  0
 24 32  1  0
 25 26  1  0
 25 31  1  0
 26 27  2  0
 26 30  1  0
 27 28  1  0
 27 29  1  0
 35 36  1  0
 35 42  1  0
 35 43  1  0
 36 37  1  0
 36 41  1  6
 37 38  1  0
 37 39  1  0
 37 40  1  0
 44 45  2  0
 44 50  1  0
 45 46  1  0
 45 55  1  0
 46 47  1  0
 46 48  2  0
 48 49  1  0
 48 54  1  0
 49 50  2  0
 49 53  1  0
 50 51  1  0
 51 52  2  0
 63 64  1  0
M  END
>  <MODEL>  (76) 
       1

>  <ApoScore>  (76) 
24.4915

$$$$
mol76_score_23.1922
     RDKit          3D

 61 65  0  0  1  0  0  0  0  0999 V2000
    7.4110   -2.6560   23.7840 C   0  0  0  0  0  0  0  0  0  0  0  0
    7.7720   -1.8100   22.5680 C   0  0  1  0  0  0  0  0  0  0  0  0
    6.6290   -1.4890   21.5970 C   0  0  0  0  0  0  0  0  0  0  0  0
    7.0970   -0.2780   20.9470 N   0  0  0  0  0  0  0  0  0  0  0  0
    6.3360    0.2610   19.8790 C   0  0  0  0  0  0  0  0  0  0  0  0
    6.6570   -0.0860   18.5940 C   0  0  0  0  0  0  0  0  0  0  0  0
    5.9580    0.3000   17.5030 N   0  0  0  0  0  0  0  0  0  0  0  0
    4.8910    1.0330   17.7010 C   0  0  0  0  0  0  0  0  0  0  0  0
    4.4360    1.4590   18.9790 C   0  0  0  0  0  0  0  0  0  0  0  0
    3.2860    2.2780   19.1300 C   0  0  0  0  0  0  0  0  0  0  0  0
    2.8400    2.6240   20.3740 C   0  0  0  0  0  0  0  0  0  0  0  0
    3.5130    2.1560   21.5230 C   0  0  0  0  0  0  0  0  0  0  0  0
    4.6320    1.3650   21.4000 C   0  0  0  0  0  0  0  0  0  0  0  0
    5.1500    1.0270   20.1190 C   0  0  0  0  0  0  0  0  0  0  0  0
    5.1250    1.0070   22.2980 H   0  0  0  0  0  0  0  0  0  0  0  0
    3.1390    2.4210   22.5070 H   0  0  0  0  0  0  0  0  0  0  0  0
    1.9620    3.2550   20.4820 H   0  0  0  0  0  0  0  0  0  0  0  0
    2.7760    2.6160   18.2320 H   0  0  0  0  0  0  0  0  0  0  0  0
    4.3210    1.3180   16.8190 H   0  0  0  0  0  0  0  0  0  0  0  0
    7.5230   -0.7200   18.4200 H   0  0  0  0  0  0  0  0  0  0  0  0
    8.0850    0.3990   21.6360 C   0  0  0  0  0  0  0  0  0  0  0  0
    8.5310    1.4930   21.3380 O   0  0  0  0  0  0  0  0  0  0  0  0
    8.4150   -0.4370   22.9050 C   0  0  1  0  0  0  0  0  0  0  0  0
    7.7050    0.2700   24.0960 C   0  0  0  0  0  0  0  0  0  0  0  0
    8.3440    1.5310   24.4240 N   0  0  0  0  0  0  0  0  0  0  0  0
    7.5420    2.6700   24.8270 C   0  0  0  0  0  0  0  0  0  0  0  0
    6.8930    3.3960   23.6570 C   0  0  0  0  0  0  0  0  0  0  0  0
    7.8540    4.1790   22.8120 N   0  0  0  0  0  0  0  0  0  0  0  0
    8.4640    5.3180   23.5620 C   0  0  0  0  0  0  0  0  0  0  0  0
    9.1180    4.9530   24.3530 H   0  0  0  0  0  0  0  0  0  0  0  0
    7.6640    5.9360   23.9920 H   0  0  0  0  0  0  0  0  0  0  0  0
    9.0490    5.9410   22.8770 H   0  0  0  0  0  0  0  0  0  0  0  0
    7.1390    4.7210   21.6260 C   0  0  0  0  0  0  0  0  0  0  0  0
    6.9670    3.9240   20.8990 H   0  0  0  0  0  0  0  0  0  0  0  0
    7.7240    5.5190   21.1650 H   0  0  0  0  0  0  0  0  0  0  0  0
    6.1760    5.1450   21.9370 H   0  0  0  0  0  0  0  0  0  0  0  0
    8.5720    3.5230   22.4690 H   0  0  0  0  0  0  0  0  0  0  0  0
    6.1280    4.0920   24.0220 H   0  0  0  0  0  0  0  0  0  0  0  0
    6.4030    2.6750   23.0020 H   0  0  0  0  0  0  0  0  0  0  0  0
    6.7690    2.3440   25.5300 H   0  0  0  0  0  0  0  0  0  0  0  0
    8.2160    3.3260   25.3690 H   0  0  0  0  0  0  0  0  0  0  0  0
    9.7000    1.6450   24.4430 C   0  0  0  0  0  0  0  0  0  0  0  0
   10.2760    2.6990   24.7040 O   0  0  0  0  0  0  0  0  0  0  0  0
   10.4620    0.3960   24.1150 C   0  0  0  0  0  0  0  0  0  0  0  0
   11.7770    0.2540   24.5580 C   0  0  0  0  0  0  0  0  0  0  0  0
   12.6120   -0.6940   24.0050 C   0  0  0  0  0  0  0  0  0  0  0  0
   12.0960   -1.4920   22.9840 C   0  0  0  0  0  0  0  0  0  0  0  0
   13.1970   -2.4870   22.0730 Cl  0  0  0  0  0  0  0  0  0  0  0  0
   10.7540   -1.4710   22.6530 C   0  0  0  0  0  0  0  0  0  0  0  0
    9.8910   -0.5380   23.2400 C   0  0  0  0  0  0  0  0  0  0  0  0
   10.4140   -2.1470   21.8760 H   0  0  0  0  0  0  0  0  0  0  0  0
   13.6590   -0.7880   24.2830 H   0  0  0  0  0  0  0  0  0  0  0  0
   12.1770    0.9550   25.2800 H   0  0  0  0  0  0  0  0  0  0  0  0
    6.6560    0.4520   23.8400 H   0  0  0  0  0  0  0  0  0  0  0  0
    7.7250   -0.3870   24.9740 H   0  0  0  0  0  0  0  0  0  0  0  0
    6.4640   -2.2660   20.8410 H   0  0  0  0  0  0  0  0  0  0  0  0
    5.6700   -1.3310   22.1150 H   0  0  0  0  0  0  0  0  0  0  0  0
    8.5130   -2.3570   21.9820 H   0  0  0  0  0  0  0  0  0  0  0  0
    6.5910   -2.2020   24.3510 H   0  0  0  0  0  0  0  0  0  0  0  0
    7.0950   -3.6650   23.5040 H   0  0  0  0  0  0  0  0  0  0  0  0
    8.2740   -2.7380   24.4560 H   0  0  0  0  0  0  0  0  0  0  0  0
  1  2  1  0
  1 59  1  0
  1 60  1  0
  1 61  1  0
  2  3  1  0
  2 23  1  0
  2 58  1  6
  3  4  1  0
  3 56  1  0
  3 57  1  0
  4  5  1  0
  4 21  1  0
  5  6  2  0
  5 14  1  0
  6  7  1  0
  6 20  1  0
  7  8  2  0
  8  9  1  0
  8 19  1  0
  9 10  1  0
  9 14  2  0
 10 11  2  0
 10 18  1  0
 11 12  1  0
 11 17  1  0
 12 13  2  0
 12 16  1  0
 13 14  1  0
 13 15  1  0
 21 22  2  0
 23 21  1  0
 23 24  1  1
 23 50  1  0
 24 25  1  0
 24 54  1  0
 24 55  1  0
 25 26  1  0
 25 42  1  0
 26 27  1  0
 26 40  1  0
 26 41  1  0
 27 28  1  0
 27 38  1  0
 27 39  1  0
 28 29  1  0
 28 33  1  0
 28 37  1  0
 29 30  1  0
 29 31  1  0
 29 32  1  0
 33 34  1  0
 33 35  1  0
 33 36  1  0
 42 43  2  0
 42 44  1  0
 44 45  2  0
 44 50  1  0
 45 46  1  0
 45 53  1  0
 46 47  2  0
 46 52  1  0
 47 48  1  0
 47 49  1  0
 49 50  2  0
 49 51  1  0
M  CHG  1  28   1
M  END
>  <MODEL>  (77) 
       1

>  <ApoScore>  (77) 
23.1922

$$$$
mol77_score_20.7248
     RDKit          3D

 57 60  0  0  0  0  0  0  0  0999 V2000
    3.1200   -6.1600   26.7850 C   0  0  0  0  0  0  0  0  0  0  0  0
    3.6760   -6.4100   25.3700 C   0  0  0  0  0  0  0  0  0  0  0  0
    2.5130   -6.8280   24.4370 C   0  0  0  0  0  0  0  0  0  0  0  0
    2.8820   -7.0920   23.4400 H   0  0  0  0  0  0  0  0  0  0  0  0
    1.9780   -7.6880   24.8540 H   0  0  0  0  0  0  0  0  0  0  0  0
    1.8100   -5.9950   24.3350 H   0  0  0  0  0  0  0  0  0  0  0  0
    4.5870   -7.5760   25.4660 C   0  0  0  0  0  0  0  0  0  0  0  0
    5.2160   -8.5450   25.5400 N   0  0  0  0  0  0  0  0  0  0  0  0
    4.4370   -5.2130   24.7780 C   0  0  0  0  0  0  0  0  0  0  0  0
    5.2290   -5.3920   23.6400 C   0  0  0  0  0  0  0  0  0  0  0  0
    5.8790   -4.3240   23.0330 C   0  0  0  0  0  0  0  0  0  0  0  0
    5.7530   -3.0380   23.5580 C   0  0  0  0  0  0  0  0  0  0  0  0
    6.4210   -1.9220   22.9560 N   0  0  0  0  0  0  0  0  0  0  0  0
    7.4170   -1.2050   23.7490 C   0  0  0  0  0  0  0  0  0  0  0  0
    8.8390   -1.4580   23.2940 C   0  0  0  0  0  0  0  0  0  0  0  0
    9.3230   -2.7620   23.2890 C   0  0  0  0  0  0  0  0  0  0  0  0
   10.6210   -3.0160   22.8800 C   0  0  0  0  0  0  0  0  0  0  0  0
   11.4530   -2.0010   22.4230 C   0  0  0  0  0  0  0  0  0  0  0  0
   10.9810   -0.6950   22.4680 C   0  0  0  0  0  0  0  0  0  0  0  0
   12.0390    0.6240   22.0250 Cl  0  0  0  0  0  0  0  0  0  0  0  0
    9.6870   -0.4190   22.9020 C   0  0  0  0  0  0  0  0  0  0  0  0
    9.3570    0.6170   22.9260 H   0  0  0  0  0  0  0  0  0  0  0  0
   12.4520   -2.2170   22.0610 H   0  0  0  0  0  0  0  0  0  0  0  0
   10.9840   -4.0230   22.9760 H   0  0  0  0  0  0  0  0  0  0  0  0
    8.6870   -3.5840   23.6150 H   0  0  0  0  0  0  0  0  0  0  0  0
    7.2900   -1.5850   24.7690 H   0  0  0  0  0  0  0  0  0  0  0  0
    7.2330   -0.1220   23.7520 H   0  0  0  0  0  0  0  0  0  0  0  0
    6.1470   -1.6580   21.6240 C   0  0  0  0  0  0  0  0  0  0  0  0
    5.3460   -2.3370   21.0050 O   0  0  0  0  0  0  0  0  0  0  0  0
    6.8890   -0.4970   20.9310 C   0  0  0  0  0  0  0  0  0  0  0  0
    6.1040    0.0830   19.7840 C   0  0  0  0  0  0  0  0  0  0  0  0
    6.4200   -0.2200   18.4860 C   0  0  0  0  0  0  0  0  0  0  0  0
    5.7610    0.2370   17.3890 N   0  0  0  0  0  0  0  0  0  0  0  0
    4.7380    1.0280   17.5880 C   0  0  0  0  0  0  0  0  0  0  0  0
    4.2800    1.4150   18.8760 C   0  0  0  0  0  0  0  0  0  0  0  0
    3.1550    2.2590   19.0520 C   0  0  0  0  0  0  0  0  0  0  0  0
    2.7430    2.6190   20.3050 C   0  0  0  0  0  0  0  0  0  0  0  0
    3.4370    2.1400   21.4390 C   0  0  0  0  0  0  0  0  0  0  0  0
    4.5250    1.3180   21.2940 C   0  0  0  0  0  0  0  0  0  0  0  0
    4.9800    0.9330   20.0070 C   0  0  0  0  0  0  0  0  0  0  0  0
    5.0460    0.9500   22.1720 H   0  0  0  0  0  0  0  0  0  0  0  0
    3.1090    2.4250   22.4330 H   0  0  0  0  0  0  0  0  0  0  0  0
    1.8920    3.2800   20.4320 H   0  0  0  0  0  0  0  0  0  0  0  0
    2.6440    2.6170   18.1630 H   0  0  0  0  0  0  0  0  0  0  0  0
    4.2150    1.3960   16.7030 H   0  0  0  0  0  0  0  0  0  0  0  0
    7.2630   -0.8690   18.2520 H   0  0  0  0  0  0  0  0  0  0  0  0
    7.1700    0.2810   21.6510 H   0  0  0  0  0  0  0  0  0  0  0  0
    7.8310   -0.9060   20.5450 H   0  0  0  0  0  0  0  0  0  0  0  0
    4.9800   -2.8530   24.7040 C   0  0  0  0  0  0  0  0  0  0  0  0
    4.3180   -3.9250   25.2940 C   0  0  0  0  0  0  0  0  0  0  0  0
    3.7250   -3.7530   26.1860 H   0  0  0  0  0  0  0  0  0  0  0  0
    4.9010   -1.8560   25.1290 H   0  0  0  0  0  0  0  0  0  0  0  0
    6.4780   -4.4990   22.1450 H   0  0  0  0  0  0  0  0  0  0  0  0
    5.3300   -6.3900   23.2190 H   0  0  0  0  0  0  0  0  0  0  0  0
    2.3220   -5.4090   26.7580 H   0  0  0  0  0  0  0  0  0  0  0  0
    2.6960   -7.0910   27.1730 H   0  0  0  0  0  0  0  0  0  0  0  0
    3.9030   -5.8240   27.4750 H   0  0  0  0  0  0  0  0  0  0  0  0
  1  2  1  0
  1 55  1  0
  1 56  1  0
  1 57  1  0
  2  3  1  0
  2  7  1  0
  2  9  1  0
  3  4  1  0
  3  5  1  0
  3  6  1  0
  7  8  3  0
  9 10  2  0
  9 50  1  0
 10 11  1  0
 10 54  1  0
 11 12  2  0
 11 53  1  0
 12 13  1  0
 12 49  1  0
 13 14  1  0
 13 28  1  0
 14 15  1  0
 14 26  1  0
 14 27  1  0
 15 16  2  0
 15 21  1  0
 16 17  1  0
 16 25  1  0
 17 18  2  0
 17 24  1  0
 18 19  1  0
 18 23  1  0
 19 20  1  0
 19 21  2  0
 21 22  1  0
 28 29  2  0
 28 30  1  0
 30 31  1  0
 30 47  1  0
 30 48  1  0
 31 32  2  0
 31 40  1  0
 32 33  1  0
 32 46  1  0
 33 34  2  0
 34 35  1  0
 34 45  1  0
 35 36  1  0
 35 40  2  0
 36 37  2  0
 36 44  1  0
 37 38  1  0
 37 43  1  0
 38 39  2  0
 38 42  1  0
 39 40  1  0
 39 41  1  0
 49 50  2  0
 49 52  1  0
 50 51  1  0
M  END
>  <MODEL>  (78) 
       1

>  <ApoScore>  (78) 
20.7248

$$$$
mol79_score_16.8099
     RDKit          3D

 40 42  0  0  0  0  0  0  0  0999 V2000
   12.5730   -1.9560   23.1270 C   0  0  0  0  0  0  0  0  0  0  0  0
   11.5980   -0.8260   23.4860 C   0  0  0  0  0  0  0  0  0  0  0  0
   10.1670   -1.3250   23.8050 C   0  0  0  0  0  0  0  0  0  0  0  0
    9.2220   -1.2880   22.6000 C   0  0  0  0  0  0  0  0  0  0  0  0
    9.1170    0.0690   22.0640 N   0  0  0  0  0  0  0  0  0  0  0  0
    8.0540    0.5650   21.3510 C   0  0  0  0  0  0  0  0  0  0  0  0
    7.9660    1.7460   21.0610 O   0  0  0  0  0  0  0  0  0  0  0  0
    6.9940   -0.4410   20.8940 C   0  0  0  0  0  0  0  0  0  0  0  0
    6.1390    0.0850   19.7720 C   0  0  0  0  0  0  0  0  0  0  0  0
    6.4490   -0.2210   18.4700 C   0  0  0  0  0  0  0  0  0  0  0  0
    5.7820    0.2240   17.3710 N   0  0  0  0  0  0  0  0  0  0  0  0
    4.7600    1.0160   17.5830 C   0  0  0  0  0  0  0  0  0  0  0  0
    4.3160    1.4150   18.8730 C   0  0  0  0  0  0  0  0  0  0  0  0
    3.1970    2.2680   19.0420 C   0  0  0  0  0  0  0  0  0  0  0  0
    2.7860    2.6360   20.2950 C   0  0  0  0  0  0  0  0  0  0  0  0
    3.4850    2.1690   21.4330 C   0  0  0  0  0  0  0  0  0  0  0  0
    4.5790    1.3500   21.2930 C   0  0  0  0  0  0  0  0  0  0  0  0
    5.0230    0.9440   20.0050 C   0  0  0  0  0  0  0  0  0  0  0  0
    5.1230    1.0220   22.1740 H   0  0  0  0  0  0  0  0  0  0  0  0
    3.1520    2.4690   22.4230 H   0  0  0  0  0  0  0  0  0  0  0  0
    1.9310    3.2940   20.4230 H   0  0  0  0  0  0  0  0  0  0  0  0
    2.6830    2.6300   18.1540 H   0  0  0  0  0  0  0  0  0  0  0  0
    4.2180    1.3870   16.7110 H   0  0  0  0  0  0  0  0  0  0  0  0
    7.2910   -0.8760   18.2510 H   0  0  0  0  0  0  0  0  0  0  0  0
    7.5140   -1.3480   20.5590 H   0  0  0  0  0  0  0  0  0  0  0  0
    6.3840   -0.7260   21.7610 H   0  0  0  0  0  0  0  0  0  0  0  0
   10.2390    0.9690   22.3030 C   0  0  0  0  0  0  0  0  0  0  0  0
   11.5380    0.1840   22.3260 C   0  0  0  0  0  0  0  0  0  0  0  0
   11.5820   -0.3950   21.4020 H   0  0  0  0  0  0  0  0  0  0  0  0
   12.4120    0.8500   22.3170 H   0  0  0  0  0  0  0  0  0  0  0  0
   10.2190    1.7200   21.5150 H   0  0  0  0  0  0  0  0  0  0  0  0
   10.0980    1.4930   23.2540 H   0  0  0  0  0  0  0  0  0  0  0  0
    8.2310   -1.6250   22.9170 H   0  0  0  0  0  0  0  0  0  0  0  0
    9.5790   -1.9920   21.8370 H   0  0  0  0  0  0  0  0  0  0  0  0
   10.1980   -2.3400   24.2260 H   0  0  0  0  0  0  0  0  0  0  0  0
    9.7270   -0.6950   24.5850 H   0  0  0  0  0  0  0  0  0  0  0  0
   11.9670   -0.3280   24.3920 H   0  0  0  0  0  0  0  0  0  0  0  0
   12.3530   -2.3350   22.1200 H   0  0  0  0  0  0  0  0  0  0  0  0
   12.5130   -2.7900   23.8280 H   0  0  0  0  0  0  0  0  0  0  0  0
   13.6210   -1.6190   23.1330 H   0  0  0  0  0  0  0  0  0  0  0  0
  1  2  1  0
  1 38  1  0
  1 39  1  0
  1 40  1  0
  2  3  1  0
  2 28  1  0
  2 37  1  0
  3  4  1  0
  3 35  1  0
  3 36  1  0
  4  5  1  0
  4 33  1  0
  4 34  1  0
  5  6  1  0
  5 27  1  0
  6  7  2  0
  6  8  1  0
  8  9  1  0
  8 25  1  0
  8 26  1  0
  9 10  2  0
  9 18  1  0
 10 11  1  0
 10 24  1  0
 11 12  2  0
 12 13  1  0
 12 23  1  0
 13 14  1  0
 13 18  2  0
 14 15  2  0
 14 22  1  0
 15 16  1  0
 15 21  1  0
 16 17  2  0
 16 20  1  0
 17 18  1  0
 17 19  1  0
 27 28  1  0
 27 31  1  0
 27 32  1  0
 28 29  1  0
 28 30  1  0
M  END
>  <MODEL>  (79) 
       1

>  <ApoScore>  (79) 
16.8099

$$$$
mol80_score_25.4810
     RDKit          3D

 59 64  0  0  1  0  0  0  0  0999 V2000
    7.3480   -2.7280   23.7800 C   0  0  0  0  0  0  0  0  0  0  0  0
    7.7120   -1.9100   22.5450 C   0  0  1  0  0  0  0  0  0  0  0  0
    6.5370   -1.5840   21.6060 C   0  0  0  0  0  0  0  0  0  0  0  0
    6.9800   -0.3730   20.9490 N   0  0  0  0  0  0  0  0  0  0  0  0
    6.2550    0.1880   19.8680 C   0  0  0  0  0  0  0  0  0  0  0  0
    6.6060   -0.1180   18.5810 C   0  0  0  0  0  0  0  0  0  0  0  0
    5.9250    0.2970   17.4850 N   0  0  0  0  0  0  0  0  0  0  0  0
    4.8550    1.0250   17.6750 C   0  0  0  0  0  0  0  0  0  0  0  0
    4.3810    1.4300   18.9540 C   0  0  0  0  0  0  0  0  0  0  0  0
    3.2350    2.2530   19.1070 C   0  0  0  0  0  0  0  0  0  0  0  0
    2.7940    2.6080   20.3510 C   0  0  0  0  0  0  0  0  0  0  0  0
    3.4740    2.1470   21.5020 C   0  0  0  0  0  0  0  0  0  0  0  0
    4.5860    1.3490   21.3770 C   0  0  0  0  0  0  0  0  0  0  0  0
    5.0870    0.9860   20.0970 C   0  0  0  0  0  0  0  0  0  0  0  0
    5.0890    0.9960   22.2730 H   0  0  0  0  0  0  0  0  0  0  0  0
    3.1180    2.4300   22.4870 H   0  0  0  0  0  0  0  0  0  0  0  0
    1.9250    3.2510   20.4650 H   0  0  0  0  0  0  0  0  0  0  0  0
    2.7250    2.5970   18.2090 H   0  0  0  0  0  0  0  0  0  0  0  0
    4.3020    1.3360   16.7870 H   0  0  0  0  0  0  0  0  0  0  0  0
    7.4810   -0.7400   18.3980 H   0  0  0  0  0  0  0  0  0  0  0  0
    8.1210    0.1920   21.4810 C   0  0  0  0  0  0  0  0  0  0  0  0
    8.7210    1.1140   20.9750 O   0  0  0  0  0  0  0  0  0  0  0  0
    8.4120   -0.5500   22.8220 C   0  0  1  0  0  0  0  0  0  0  0  0
    7.7030    0.2040   23.9890 C   0  0  0  0  0  0  0  0  0  0  0  0
    8.3550    1.4530   24.3280 N   0  0  0  0  0  0  0  0  0  0  0  0
    7.6070    2.5970   24.8460 C   0  0  0  0  0  0  0  0  0  0  0  0
    7.5420    3.7600   23.8930 C   0  0  0  0  0  0  0  0  0  0  0  0
    7.0290    3.8570   22.6150 C   0  0  0  0  0  0  0  0  0  0  0  0
    7.1710    5.2150   22.2760 C   0  0  0  0  0  0  0  0  0  0  0  0
    7.7380    5.9070   23.2580 N   0  0  0  0  0  0  0  0  0  0  0  0
    7.9700    5.0080   24.2240 N   0  0  0  0  0  0  0  0  0  0  0  0
    8.5720    5.4350   25.4730 C   0  0  0  0  0  0  0  0  0  0  0  0
    9.4550    4.8320   25.6940 H   0  0  0  0  0  0  0  0  0  0  0  0
    8.8490    6.4810   25.3470 H   0  0  0  0  0  0  0  0  0  0  0  0
    7.8600    5.3560   26.3030 H   0  0  0  0  0  0  0  0  0  0  0  0
    6.8590    5.7190   21.3700 H   0  0  0  0  0  0  0  0  0  0  0  0
    6.6170    3.0610   22.0060 H   0  0  0  0  0  0  0  0  0  0  0  0
    8.0880    2.9180   25.7750 H   0  0  0  0  0  0  0  0  0  0  0  0
    6.5870    2.2790   25.1070 H   0  0  0  0  0  0  0  0  0  0  0  0
    9.7180    1.5230   24.4000 C   0  0  0  0  0  0  0  0  0  0  0  0
   10.2870    2.5510   24.7420 O   0  0  0  0  0  0  0  0  0  0  0  0
   10.4770    0.2780   24.0190 C   0  0  0  0  0  0  0  0  0  0  0  0
   11.8320    0.1920   24.3640 C   0  0  0  0  0  0  0  0  0  0  0  0
   12.6470   -0.7730   23.8080 C   0  0  0  0  0  0  0  0  0  0  0  0
   12.0800   -1.6450   22.8810 C   0  0  0  0  0  0  0  0  0  0  0  0
   12.8940   -2.4930   22.2220 F   0  0  0  0  0  0  0  0  0  0  0  0
   10.7350   -1.6260   22.5640 C   0  0  0  0  0  0  0  0  0  0  0  0
    9.8910   -0.6700   23.1610 C   0  0  0  0  0  0  0  0  0  0  0  0
   10.3800   -2.3730   21.8560 H   0  0  0  0  0  0  0  0  0  0  0  0
   13.7100   -0.8490   24.0340 H   0  0  0  0  0  0  0  0  0  0  0  0
   12.2420    0.9410   25.0400 H   0  0  0  0  0  0  0  0  0  0  0  0
    7.7070   -0.4460   24.8700 H   0  0  0  0  0  0  0  0  0  0  0  0
    6.6580    0.4020   23.7270 H   0  0  0  0  0  0  0  0  0  0  0  0
    6.3560   -2.3680   20.8590 H   0  0  0  0  0  0  0  0  0  0  0  0
    5.5960   -1.4180   22.1510 H   0  0  0  0  0  0  0  0  0  0  0  0
    8.4250   -2.4920   21.9550 H   0  0  0  0  0  0  0  0  0  0  0  0
    6.5310   -2.2670   24.3460 H   0  0  0  0  0  0  0  0  0  0  0  0
    8.2070   -2.8190   24.4550 H   0  0  0  0  0  0  0  0  0  0  0  0
    7.0220   -3.7350   23.5060 H   0  0  0  0  0  0  0  0  0  0  0  0
  1  2  1  0
  1 57  1  0
  1 58  1  0
  1 59  1  0
  2  3  1  0
  2 23  1  0
  2 56  1  6
  3  4  1  0
  3 54  1  0
  3 55  1  0
  4  5  1  0
  4 21  1  0
  5  6  2  0
  5 14  1  0
  6  7  1  0
  6 20  1  0
  7  8  2  0
  8  9  1  0
  8 19  1  0
  9 10  1  0
  9 14  2  0
 10 11  2  0
 10 18  1  0
 11 12  1  0
 11 17  1  0
 12 13  2  0
 12 16  1  0
 13 14  1  0
 13 15  1  0
 21 22  2  0
 23 21  1  0
 23 24  1  1
 23 48  1  0
 24 25  1  0
 24 52  1  0
 24 53  1  0
 25 26  1  0
 25 40  1  0
 26 27  1  0
 26 38  1  0
 26 39  1  0
 27 28  2  0
 27 31  1  0
 28 29  1  0
 28 37  1  0
 29 30  2  0
 29 36  1  0
 30 31  1  0
 31 32  1  0
 32 33  1  0
 32 34  1  0
 32 35  1  0
 40 41  2  0
 40 42  1  0
 42 43  2  0
 42 48  1  0
 43 44  1  0
 43 51  1  0
 44 45  2  0
 44 50  1  0
 45 46  1  0
 45 47  1  0
 47 48  2  0
 47 49  1  0
M  END
>  <MODEL>  (80) 
       1

>  <ApoScore>  (80) 
25.4810

$$$$
mol81_score_22.8042
     RDKit          3D

 58 63  0  0  1  0  0  0  0  0999 V2000
    5.4630    4.9490   21.4190 C   0  0  0  0  0  0  0  0  0  0  0  0
    6.4450    4.5450   22.4690 C   0  0  0  0  0  0  0  0  0  0  0  0
    6.3500    3.5870   23.3410 N   0  0  0  0  0  0  0  0  0  0  0  0
    7.5860    3.5750   23.9910 C   0  0  0  0  0  0  0  0  0  0  0  0
    7.9680    2.5270   24.9930 C   0  0  0  0  0  0  0  0  0  0  0  0
    8.7150    1.4130   24.4160 N   0  0  0  0  0  0  0  0  0  0  0  0
    8.0580    0.1470   24.1620 C   0  0  0  0  0  0  0  0  0  0  0  0
    8.3540   -0.4110   22.7480 C   0  0  2  0  0  0  0  0  0  0  0  0
    7.6810    0.4410   21.6350 C   0  0  0  0  0  0  0  0  0  0  0  0
    7.8480    1.6190   21.4150 O   0  0  0  0  0  0  0  0  0  0  0  0
    6.8750   -0.3810   20.8780 N   0  0  0  0  0  0  0  0  0  0  0  0
    6.1260    0.1080   19.7790 C   0  0  0  0  0  0  0  0  0  0  0  0
    6.4430   -0.2260   18.4860 C   0  0  0  0  0  0  0  0  0  0  0  0
    5.7710    0.2260   17.4010 N   0  0  0  0  0  0  0  0  0  0  0  0
    4.7480    1.0200   17.6000 C   0  0  0  0  0  0  0  0  0  0  0  0
    4.2910    1.4230   18.8850 C   0  0  0  0  0  0  0  0  0  0  0  0
    3.1620    2.2710   19.0610 C   0  0  0  0  0  0  0  0  0  0  0  0
    2.7330    2.6080   20.3160 C   0  0  0  0  0  0  0  0  0  0  0  0
    3.4130    2.1130   21.4510 C   0  0  0  0  0  0  0  0  0  0  0  0
    4.5110    1.3030   21.3060 C   0  0  0  0  0  0  0  0  0  0  0  0
    4.9920    0.9480   20.0150 C   0  0  0  0  0  0  0  0  0  0  0  0
    5.0220    0.9260   22.1840 H   0  0  0  0  0  0  0  0  0  0  0  0
    3.0800    2.3910   22.4480 H   0  0  0  0  0  0  0  0  0  0  0  0
    1.8750    3.2610   20.4450 H   0  0  0  0  0  0  0  0  0  0  0  0
    2.6560    2.6400   18.1750 H   0  0  0  0  0  0  0  0  0  0  0  0
    4.2240    1.3810   16.7160 H   0  0  0  0  0  0  0  0  0  0  0  0
    7.2880   -0.8750   18.2600 H   0  0  0  0  0  0  0  0  0  0  0  0
    7.0640   -1.7890   21.1440 C   0  0  0  0  0  0  0  0  0  0  0  0
    7.7430   -1.8410   22.5340 C   0  0  2  0  0  0  0  0  0  0  0  0
    6.7480   -2.3350   23.6000 C   0  0  0  0  0  0  0  0  0  0  0  0
    7.2140   -2.4130   24.5880 H   0  0  0  0  0  0  0  0  0  0  0  0
    5.8760   -1.6750   23.6820 H   0  0  0  0  0  0  0  0  0  0  0  0
    6.3840   -3.3350   23.3350 H   0  0  0  0  0  0  0  0  0  0  0  0
    8.5640   -2.5670   22.5190 H   0  0  0  0  0  0  0  0  0  0  0  0
    6.0960   -2.3030   21.1330 H   0  0  0  0  0  0  0  0  0  0  0  0
    7.7080   -2.2360   20.3820 H   0  0  0  0  0  0  0  0  0  0  0  0
    9.8630   -0.3530   22.5420 C   0  0  0  0  0  0  0  0  0  0  0  0
   10.4650   -1.1750   21.5840 C   0  0  0  0  0  0  0  0  0  0  0  0
   11.8210   -1.0730   21.3640 C   0  0  0  0  0  0  0  0  0  0  0  0
   12.3760   -1.8430   20.4120 F   0  0  0  0  0  0  0  0  0  0  0  0
   12.6180   -0.1510   22.0310 C   0  0  0  0  0  0  0  0  0  0  0  0
   12.0180    0.6970   22.9400 C   0  0  0  0  0  0  0  0  0  0  0  0
   10.6490    0.6090   23.1940 C   0  0  0  0  0  0  0  0  0  0  0  0
   10.0350    1.6160   24.1240 C   0  0  0  0  0  0  0  0  0  0  0  0
   10.6550    2.5740   24.5680 O   0  0  0  0  0  0  0  0  0  0  0  0
   12.5830    1.4600   23.4640 H   0  0  0  0  0  0  0  0  0  0  0  0
   13.6710   -0.0920   21.7870 H   0  0  0  0  0  0  0  0  0  0  0  0
    9.9080   -1.8590   20.9530 H   0  0  0  0  0  0  0  0  0  0  0  0
    6.9850    0.3220   24.2560 H   0  0  0  0  0  0  0  0  0  0  0  0
    8.3760   -0.6070   24.9010 H   0  0  0  0  0  0  0  0  0  0  0  0
    7.0590    2.1270   25.4550 H   0  0  0  0  0  0  0  0  0  0  0  0
    8.6030    2.9750   25.7640 H   0  0  0  0  0  0  0  0  0  0  0  0
    8.3350    4.5870   23.5090 C   0  0  0  0  0  0  0  0  0  0  0  0
    7.6240    5.2170   22.5300 O   0  0  0  0  0  0  0  0  0  0  0  0
    9.3150    4.9750   23.7410 H   0  0  0  0  0  0  0  0  0  0  0  0
    5.6740    5.9520   21.0400 H   0  0  0  0  0  0  0  0  0  0  0  0
    4.4580    4.9170   21.8400 H   0  0  0  0  0  0  0  0  0  0  0  0
    5.4770    4.2350   20.5870 H   0  0  0  0  0  0  0  0  0  0  0  0
  1  2  1  0
  1 56  1  0
  1 57  1  0
  1 58  1  0
  2  3  2  0
  2 54  1  0
  3  4  1  0
  4  5  1  0
  4 53  2  0
  5  6  1  0
  5 51  1  0
  5 52  1  0
  6  7  1  0
  6 44  1  0
  8  7  1  1
  7 49  1  0
  7 50  1  0
  8  9  1  0
  8 29  1  0
  8 37  1  0
  9 10  2  0
  9 11  1  0
 11 12  1  0
 11 28  1  0
 12 13  2  0
 12 21  1  0
 13 14  1  0
 13 27  1  0
 14 15  2  0
 15 16  1  0
 15 26  1  0
 16 17  1  0
 16 21  2  0
 17 18  2  0
 17 25  1  0
 18 19  1  0
 18 24  1  0
 19 20  2  0
 19 23  1  0
 20 21  1  0
 20 22  1  0
 28 29  1  0
 28 35  1  0
 28 36  1  0
 29 30  1  0
 29 34  1  6
 30 31  1  0
 30 32  1  0
 30 33  1  0
 37 38  2  0
 37 43  1  0
 38 39  1  0
 38 48  1  0
 39 40  1  0
 39 41  2  0
 41 42  1  0
 41 47  1  0
 42 43  2  0
 42 46  1  0
 43 44  1  0
 44 45  2  0
 53 54  1  0
 53 55  1  0
M  END
>  <MODEL>  (81) 
       1

>  <ApoScore>  (81) 
22.8042

$$$$
mol82_score_23.8245
     RDKit          3D

 55 60  0  0  1  0  0  0  0  0999 V2000
    6.7860   -2.8420   23.6540 C   0  0  0  0  0  0  0  0  0  0  0  0
    6.9710   -2.2390   22.2630 C   0  0  1  0  0  0  0  0  0  0  0  0
    5.8130   -1.3560   21.7820 C   0  0  0  0  0  0  0  0  0  0  0  0
    6.4370   -0.4100   20.8630 N   0  0  0  0  0  0  0  0  0  0  0  0
    5.8240    0.1780   19.7330 C   0  0  0  0  0  0  0  0  0  0  0  0
    6.2440   -0.1000   18.4540 C   0  0  0  0  0  0  0  0  0  0  0  0
    5.6200    0.3520   17.3360 N   0  0  0  0  0  0  0  0  0  0  0  0
    4.5780    1.1340   17.4980 C   0  0  0  0  0  0  0  0  0  0  0  0
    4.0720    1.5390   18.7680 C   0  0  0  0  0  0  0  0  0  0  0  0
    2.9580    2.4060   18.9130 C   0  0  0  0  0  0  0  0  0  0  0  0
    2.5470    2.7980   20.1580 C   0  0  0  0  0  0  0  0  0  0  0  0
    3.2330    2.3630   21.3130 C   0  0  0  0  0  0  0  0  0  0  0  0
    4.3120    1.5240   21.1990 C   0  0  0  0  0  0  0  0  0  0  0  0
    4.7300    1.0700   19.9230 C   0  0  0  0  0  0  0  0  0  0  0  0
    4.8710    1.2220   22.0790 H   0  0  0  0  0  0  0  0  0  0  0  0
    2.9140    2.6950   22.2960 H   0  0  0  0  0  0  0  0  0  0  0  0
    1.6970    3.4640   20.2680 H   0  0  0  0  0  0  0  0  0  0  0  0
    2.4550    2.7550   18.0160 H   0  0  0  0  0  0  0  0  0  0  0  0
    4.0840    1.4930   16.5960 H   0  0  0  0  0  0  0  0  0  0  0  0
    7.1180   -0.7250   18.2790 H   0  0  0  0  0  0  0  0  0  0  0  0
    7.7850   -0.2660   21.0620 C   0  0  0  0  0  0  0  0  0  0  0  0
    8.5080    0.5450   20.5140 O   0  0  0  0  0  0  0  0  0  0  0  0
    8.2590   -1.3520   22.0350 C   0  0  1  0  0  0  0  0  0  0  0  0
    8.8190   -0.6750   23.3230 C   0  0  0  0  0  0  0  0  0  0  0  0
    9.6300   -1.5050   24.2320 N   0  0  0  0  0  0  0  0  0  0  0  0
    9.5290   -1.1700   25.6320 C   0  0  0  0  0  0  0  0  0  0  0  0
    8.8430   -2.2370   26.4240 C   0  0  0  0  0  0  0  0  0  0  0  0
    7.8680   -2.0780   27.2590 N   0  0  0  0  0  0  0  0  0  0  0  0
    7.5700   -3.3680   27.6770 C   0  0  0  0  0  0  0  0  0  0  0  0
    8.3950   -4.2400   27.0620 C   0  0  0  0  0  0  0  0  0  0  0  0
    9.2250   -3.5180   26.2470 O   0  0  0  0  0  0  0  0  0  0  0  0
    8.5130   -5.3110   27.0510 H   0  0  0  0  0  0  0  0  0  0  0  0
    6.7790   -3.5670   28.3850 H   0  0  0  0  0  0  0  0  0  0  0  0
   10.5420   -0.9840   26.0020 H   0  0  0  0  0  0  0  0  0  0  0  0
    8.9160   -0.2840   25.7360 H   0  0  0  0  0  0  0  0  0  0  0  0
   10.8200   -2.1760   23.9070 C   0  0  0  0  0  0  0  0  0  0  0  0
   11.8120   -2.1190   24.6210 O   0  0  0  0  0  0  0  0  0  0  0  0
   10.7990   -2.9540   22.6880 C   0  0  0  0  0  0  0  0  0  0  0  0
   12.0420   -2.8580   21.9300 C   0  0  0  0  0  0  0  0  0  0  0  0
   12.0380   -2.8000   20.5800 C   0  0  0  0  0  0  0  0  0  0  0  0
   11.9610   -3.0850   20.4450 C   0  0  0  0  0  0  0  0  0  0  0  0
   11.5420   -3.9420   19.5070 F   0  0  0  0  0  0  0  0  0  0  0  0
    9.6510   -3.1540   22.0360 C   0  0  0  0  0  0  0  0  0  0  0  0
    9.2910   -2.1340   21.2820 C   0  0  0  0  0  0  0  0  0  0  0  0
    9.5180   -1.8560   20.2580 H   0  0  0  0  0  0  0  0  0  0  0  0
   13.1610   -3.1620   20.4400 H   0  0  0  0  0  0  0  0  0  0  0  0
   12.8710   -2.3960   22.4640 H   0  0  0  0  0  0  0  0  0  0  0  0
    7.9440   -0.3350   23.8820 H   0  0  0  0  0  0  0  0  0  0  0  0
    9.3540    0.2390   23.0260 H   0  0  0  0  0  0  0  0  0  0  0  0
    5.0340   -1.9260   21.2720 H   0  0  0  0  0  0  0  0  0  0  0  0
    5.3440   -0.8380   22.6280 H   0  0  0  0  0  0  0  0  0  0  0  0
    7.0950   -3.0740   21.5600 H   0  0  0  0  0  0  0  0  0  0  0  0
    6.6290   -2.0810   24.4270 H   0  0  0  0  0  0  0  0  0  0  0  0
    7.6720   -3.4250   23.9270 H   0  0  0  0  0  0  0  0  0  0  0  0
    5.9200   -3.5120   23.6680 H   0  0  0  0  0  0  0  0  0  0  0  0
  1  2  1  0
  1 53  1  0
  1 54  1  0
  1 55  1  0
  2  3  1  0
  2 23  1  0
  2 52  1  6
  3  4  1  0
  3 50  1  0
  3 51  1  0
  4  5  1  0
  4 21  1  0
  5  6  2  0
  5 14  1  0
  6  7  1  0
  6 20  1  0
  7  8  2  0
  8  9  1  0
  8 19  1  0
  9 10  1  0
  9 14  2  0
 10 11  2  0
 10 18  1  0
 11 12  1  0
 11 17  1  0
 12 13  2  0
 12 16  1  0
 13 14  1  0
 13 15  1  0
 21 22  2  0
 23 21  1  0
 23 24  1  1
 23 44  1  0
 24 25  1  0
 24 48  1  0
 24 49  1  0
 25 26  1  0
 25 36  1  0
 26 27  1  0
 26 34  1  0
 26 35  1  0
 27 28  2  0
 27 31  1  0
 28 29  1  0
 29 30  2  0
 29 33  1  0
 30 31  1  0
 30 32  1  0
 36 37  2  0
 36 38  1  0
 38 39  2  0
 38 44  1  0
 39 40  1  0
 39 47  1  0
 40 41  2  0
 40 46  1  0
 41 42  1  0
 41 43  1  0
 43 44  2  0
 43 45  1  0
M  END
>  <MODEL>  (82) 
       1

>  <ApoScore>  (82) 
23.8245

$$$$
mol83_score_22.6435
     RDKit          3D

 72 77  0  0  1  0  0  0  0  0999 V2000
    9.2060    6.0360   23.5070 C   0  0  0  0  0  0  0  0  0  0  0  0
    7.9880    6.0560   22.5910 C   0  0  2  0  0  0  0  0  0  0  0  0
    7.2550    7.3830   22.7000 C   0  0  0  0  0  0  0  0  0  0  0  0
    6.0850    7.4250   21.9130 O   0  0  0  0  0  0  0  0  0  0  0  0
    5.1560    6.4700   22.3790 C   0  0  0  0  0  0  0  0  0  0  0  0
    5.6780    5.0470   22.2480 C   0  0  1  0  0  0  0  0  0  0  0  0
    5.7890    4.6370   20.7870 C   0  0  0  0  0  0  0  0  0  0  0  0
    6.1240    3.5980   20.7030 H   0  0  0  0  0  0  0  0  0  0  0  0
    6.5120    5.2810   20.2780 H   0  0  0  0  0  0  0  0  0  0  0  0
    4.8300    4.7030   20.2690 H   0  0  0  0  0  0  0  0  0  0  0  0
    7.0210    4.9310   22.9360 N   0  0  0  0  0  0  0  0  0  0  0  0
    7.6290    3.5860   22.7430 C   0  0  0  0  0  0  0  0  0  0  0  0
    8.1020    3.0340   24.0740 C   0  0  0  0  0  0  0  0  0  0  0  0
    8.7440    1.7500   23.9030 N   0  0  0  0  0  0  0  0  0  0  0  0
    7.9660    0.5270   23.8160 C   0  0  0  0  0  0  0  0  0  0  0  0
    8.3820   -0.3540   22.6030 C   0  0  2  0  0  0  0  0  0  0  0  0
    7.9650    0.2500   21.2480 C   0  0  0  0  0  0  0  0  0  0  0  0
    8.5060    1.1560   20.6380 O   0  0  0  0  0  0  0  0  0  0  0  0
    6.8520   -0.4230   20.8010 N   0  0  0  0  0  0  0  0  0  0  0  0
    6.1000    0.0990   19.7270 C   0  0  0  0  0  0  0  0  0  0  0  0
    6.4550   -0.1870   18.4360 C   0  0  0  0  0  0  0  0  0  0  0  0
    5.7840    0.2590   17.3490 N   0  0  0  0  0  0  0  0  0  0  0  0
    4.7540    1.0440   17.5720 C   0  0  0  0  0  0  0  0  0  0  0  0
    4.3000    1.4380   18.8620 C   0  0  0  0  0  0  0  0  0  0  0  0
    3.1880    2.2980   19.0510 C   0  0  0  0  0  0  0  0  0  0  0  0
    2.7710    2.6390   20.3080 C   0  0  0  0  0  0  0  0  0  0  0  0
    3.4720    2.1730   21.4400 C   0  0  0  0  0  0  0  0  0  0  0  0
    4.5640    1.3550   21.2910 C   0  0  0  0  0  0  0  0  0  0  0  0
    4.9910    0.9500   19.9930 C   0  0  0  0  0  0  0  0  0  0  0  0
    5.1180    1.0410   22.1710 H   0  0  0  0  0  0  0  0  0  0  0  0
    3.1450    2.4670   22.4330 H   0  0  0  0  0  0  0  0  0  0  0  0
    1.9060    3.2810   20.4380 H   0  0  0  0  0  0  0  0  0  0  0  0
    2.6880    2.6820   18.1670 H   0  0  0  0  0  0  0  0  0  0  0  0
    4.2180    1.4130   16.6980 H   0  0  0  0  0  0  0  0  0  0  0  0
    7.3190   -0.8230   18.2560 H   0  0  0  0  0  0  0  0  0  0  0  0
    6.3990   -1.4920   21.6690 C   0  0  0  0  0  0  0  0  0  0  0  0
    7.6280   -1.7170   22.5590 C   0  0  2  0  0  0  0  0  0  0  0  0
    7.3530   -2.3980   23.8890 C   0  0  0  0  0  0  0  0  0  0  0  0
    8.2940   -2.5230   24.4370 H   0  0  0  0  0  0  0  0  0  0  0  0
    6.6600   -1.8230   24.5160 H   0  0  0  0  0  0  0  0  0  0  0  0
    6.9200   -3.3880   23.7090 H   0  0  0  0  0  0  0  0  0  0  0  0
    8.2580   -2.3980   21.9800 H   0  0  0  0  0  0  0  0  0  0  0  0
    6.1620   -2.3920   21.0870 H   0  0  0  0  0  0  0  0  0  0  0  0
    5.4940   -1.2210   22.2380 H   0  0  0  0  0  0  0  0  0  0  0  0
    9.8800   -0.4560   22.5980 C   0  0  0  0  0  0  0  0  0  0  0  0
   10.4720   -1.4500   21.8260 C   0  0  0  0  0  0  0  0  0  0  0  0
   11.8380   -1.5490   21.7420 C   0  0  0  0  0  0  0  0  0  0  0  0
   12.3360   -2.8550   20.7020 Cl  0  0  0  0  0  0  0  0  0  0  0  0
   12.6660   -0.6480   22.4240 C   0  0  0  0  0  0  0  0  0  0  0  0
   12.0820    0.3860   23.1210 C   0  0  0  0  0  0  0  0  0  0  0  0
   10.6990    0.5140   23.1770 C   0  0  0  0  0  0  0  0  0  0  0  0
   10.1040    1.7440   23.7810 C   0  0  0  0  0  0  0  0  0  0  0  0
   10.8040    2.6930   24.1140 O   0  0  0  0  0  0  0  0  0  0  0  0
   12.7030    1.1250   23.6110 H   0  0  0  0  0  0  0  0  0  0  0  0
   13.7470   -0.6800   22.4450 H   0  0  0  0  0  0  0  0  0  0  0  0
    9.9110   -2.1690   21.2420 H   0  0  0  0  0  0  0  0  0  0  0  0
    6.9010    0.7790   23.7650 H   0  0  0  0  0  0  0  0  0  0  0  0
    8.1270   -0.0550   24.7370 H   0  0  0  0  0  0  0  0  0  0  0  0
    8.8320    3.7150   24.5080 H   0  0  0  0  0  0  0  0  0  0  0  0
    7.2320    2.9720   24.7440 H   0  0  0  0  0  0  0  0  0  0  0  0
    8.4490    3.6500   22.0160 H   0  0  0  0  0  0  0  0  0  0  0  0
    6.8880    2.8780   22.3550 H   0  0  0  0  0  0  0  0  0  0  0  0
    6.8540    5.0130   23.9580 H   0  0  0  0  0  0  0  0  0  0  0  0
    4.9960    4.3720   22.7820 H   0  0  0  0  0  0  0  0  0  0  0  0
    4.2570    6.5710   21.7640 H   0  0  0  0  0  0  0  0  0  0  0  0
    4.8850    6.6840   23.4250 H   0  0  0  0  0  0  0  0  0  0  0  0
    6.9980    7.5600   23.7590 H   0  0  0  0  0  0  0  0  0  0  0  0
    7.9110    8.1870   22.3560 H   0  0  0  0  0  0  0  0  0  0  0  0
    8.3130    5.9110   21.5550 H   0  0  0  0  0  0  0  0  0  0  0  0
    9.8420    5.1610   23.3410 H   0  0  0  0  0  0  0  0  0  0  0  0
    9.8170    6.9270   23.3490 H   0  0  0  0  0  0  0  0  0  0  0  0
    8.8810    6.0300   24.5570 H   0  0  0  0  0  0  0  0  0  0  0  0
  1  2  1  0
  1 70  1  0
  1 71  1  0
  1 72  1  0
  2  3  1  0
  2 11  1  0
  2 69  1  6
  3  4  1  0
  3 67  1  0
  3 68  1  0
  4  5  1  0
  5  6  1  0
  5 65  1  0
  5 66  1  0
  6  7  1  0
  6 11  1  0
  6 64  1  1
  7  8  1  0
  7  9  1  0
  7 10  1  0
 11 12  1  0
 11 63  1  0
 12 13  1  0
 12 61  1  0
 12 62  1  0
 13 14  1  0
 13 59  1  0
 13 60  1  0
 14 15  1  0
 14 52  1  0
 16 15  1  1
 15 57  1  0
 15 58  1  0
 16 17  1  0
 16 37  1  0
 16 45  1  0
 17 18  2  0
 17 19  1  0
 19 20  1  0
 19 36  1  0
 20 21  2  0
 20 29  1  0
 21 22  1  0
 21 35  1  0
 22 23  2  0
 23 24  1  0
 23 34  1  0
 24 25  1  0
 24 29  2  0
 25 26  2  0
 25 33  1  0
 26 27  1  0
 26 32  1  0
 27 28  2  0
 27 31  1  0
 28 29  1  0
 28 30  1  0
 36 37  1  0
 36 43  1  0
 36 44  1  0
 37 38  1  0
 37 42  1  6
 38 39  1  0
 38 40  1  0
 38 41  1  0
 45 46  2  0
 45 51  1  0
 46 47  1  0
 46 56  1  0
 47 48  1  0
 47 49  2  0
 49 50  1  0
 49 55  1  0
 50 51  2  0
 50 54  1  0
 51 52  1  0
 52 53  2  0
M  CHG  1  11   1
M  END
>  <MODEL>  (83) 
       1

>  <ApoScore>  (83) 
22.6435

$$$$
mol84_score_23.2311
     RDKit          3D

 60 65  0  0  1  0  0  0  0  0999 V2000
    7.2420    1.8600   28.6220 C   0  0  0  0  0  0  0  0  0  0  0  0
    7.6500    1.8450   27.2280 N   0  0  0  0  0  0  0  0  0  0  0  0
    6.8630    2.4350   26.2940 C   0  0  0  0  0  0  0  0  0  0  0  0
    5.7940    2.9580   26.5740 O   0  0  0  0  0  0  0  0  0  0  0  0
    7.3970    2.4820   24.8730 C   0  0  0  0  0  0  0  0  0  0  0  0
    8.2330    1.4150   24.4000 N   0  0  0  0  0  0  0  0  0  0  0  0
    7.6030    0.1410   24.0810 C   0  0  0  0  0  0  0  0  0  0  0  0
    8.2970   -0.5500   22.8730 C   0  0  2  0  0  0  0  0  0  0  0  0
    7.9400    0.2760   21.6030 C   0  0  0  0  0  0  0  0  0  0  0  0
    8.3740    1.3560   21.2710 O   0  0  0  0  0  0  0  0  0  0  0  0
    6.9670   -0.4110   20.9010 N   0  0  0  0  0  0  0  0  0  0  0  0
    6.2140    0.1530   19.8370 C   0  0  0  0  0  0  0  0  0  0  0  0
    6.5510   -0.1490   18.5450 C   0  0  0  0  0  0  0  0  0  0  0  0
    5.8770    0.2900   17.4560 N   0  0  0  0  0  0  0  0  0  0  0  0
    4.8210    1.0400   17.6490 C   0  0  0  0  0  0  0  0  0  0  0  0
    4.3550    1.4260   18.9360 C   0  0  0  0  0  0  0  0  0  0  0  0
    3.2230    2.2650   19.0950 C   0  0  0  0  0  0  0  0  0  0  0  0
    2.7880    2.6110   20.3440 C   0  0  0  0  0  0  0  0  0  0  0  0
    3.4480    2.1110   21.4880 C   0  0  0  0  0  0  0  0  0  0  0  0
    4.5370    1.2830   21.3590 C   0  0  0  0  0  0  0  0  0  0  0  0
    5.0480    0.9510   20.0730 C   0  0  0  0  0  0  0  0  0  0  0  0
    5.0160    0.8850   22.2490 H   0  0  0  0  0  0  0  0  0  0  0  0
    3.0930    2.3890   22.4760 H   0  0  0  0  0  0  0  0  0  0  0  0
    1.9310    3.2660   20.4630 H   0  0  0  0  0  0  0  0  0  0  0  0
    2.7240    2.6280   18.2010 H   0  0  0  0  0  0  0  0  0  0  0  0
    4.2790    1.3850   16.7660 H   0  0  0  0  0  0  0  0  0  0  0  0
    7.4110   -0.7880   18.3480 H   0  0  0  0  0  0  0  0  0  0  0  0
    6.5470   -1.6530   21.5110 C   0  0  0  0  0  0  0  0  0  0  0  0
    7.6580   -1.9290   22.5360 C   0  0  2  0  0  0  0  0  0  0  0  0
    7.2330   -2.7650   23.7370 C   0  0  0  0  0  0  0  0  0  0  0  0
    6.3820   -2.3200   24.2660 H   0  0  0  0  0  0  0  0  0  0  0  0
    6.9400   -3.7710   23.4280 H   0  0  0  0  0  0  0  0  0  0  0  0
    8.0590   -2.8510   24.4520 H   0  0  0  0  0  0  0  0  0  0  0  0
    8.4180   -2.4970   21.9950 H   0  0  0  0  0  0  0  0  0  0  0  0
    5.5490   -1.5660   21.9710 H   0  0  0  0  0  0  0  0  0  0  0  0
    6.4900   -2.4330   20.7440 H   0  0  0  0  0  0  0  0  0  0  0  0
    9.7920   -0.6240   23.1810 C   0  0  0  0  0  0  0  0  0  0  0  0
   10.6510   -1.5700   22.5900 C   0  0  0  0  0  0  0  0  0  0  0  0
   12.0060   -1.5700   22.8720 C   0  0  0  0  0  0  0  0  0  0  0  0
   13.0430   -2.6930   22.0310 Cl  0  0  0  0  0  0  0  0  0  0  0  0
   12.5610   -0.6990   23.8070 C   0  0  0  0  0  0  0  0  0  0  0  0
   11.7290    0.2480   24.3720 C   0  0  0  0  0  0  0  0  0  0  0  0
   10.3750    0.3250   24.0340 C   0  0  0  0  0  0  0  0  0  0  0  0
    9.6030    1.5340   24.4600 C   0  0  0  0  0  0  0  0  0  0  0  0
   10.1480    2.5700   24.8040 O   0  0  0  0  0  0  0  0  0  0  0  0
   12.1170    0.9690   25.0750 H   0  0  0  0  0  0  0  0  0  0  0  0
   13.6170   -0.7680   24.0570 H   0  0  0  0  0  0  0  0  0  0  0  0
   10.3000   -2.3080   21.8780 H   0  0  0  0  0  0  0  0  0  0  0  0
    6.5480    0.3190   23.8600 H   0  0  0  0  0  0  0  0  0  0  0  0
    7.6490   -0.5210   24.9520 H   0  0  0  0  0  0  0  0  0  0  0  0
    7.5780    3.8840   24.3600 C   0  0  0  0  0  0  0  0  0  0  0  0
    6.4390    3.0630   23.8580 C   0  0  0  0  0  0  0  0  0  0  0  0
    6.5610    2.6770   22.8500 H   0  0  0  0  0  0  0  0  0  0  0  0
    5.4370    3.2940   24.2130 H   0  0  0  0  0  0  0  0  0  0  0  0
    7.3750    4.6750   25.0770 H   0  0  0  0  0  0  0  0  0  0  0  0
    8.4210    4.0440   23.6970 H   0  0  0  0  0  0  0  0  0  0  0  0
    8.6120    1.6340   27.0040 H   0  0  0  0  0  0  0  0  0  0  0  0
    6.3100    1.3010   28.7460 H   0  0  0  0  0  0  0  0  0  0  0  0
    8.0180    1.4010   29.2380 H   0  0  0  0  0  0  0  0  0  0  0  0
    7.0530    2.8780   28.9780 H   0  0  0  0  0  0  0  0  0  0  0  0
  1  2  1  0
  1 58  1  0
  1 59  1  0
  1 60  1  0
  2  3  1  0
  2 57  1  0
  3  4  2  0
  3  5  1  0
  5  6  1  0
  5 51  1  0
  5 52  1  0
  6  7  1  0
  6 44  1  0
  8  7  1  1
  7 49  1  0
  7 50  1  0
  8  9  1  0
  8 29  1  0
  8 37  1  0
  9 10  2  0
  9 11  1  0
 11 12  1  0
 11 28  1  0
 12 13  2  0
 12 21  1  0
 13 14  1  0
 13 27  1  0
 14 15  2  0
 15 16  1  0
 15 26  1  0
 16 17  1  0
 16 21  2  0
 17 18  2  0
 17 25  1  0
 18 19  1  0
 18 24  1  0
 19 20  2  0
 19 23  1  0
 20 21  1  0
 20 22  1  0
 28 29  1  0
 28 35  1  0
 28 36  1  0
 29 30  1  0
 29 34  1  6
 30 31  1  0
 30 32  1  0
 30 33  1  0
 37 38  2  0
 37 43  1  0
 38 39  1  0
 38 48  1  0
 39 40  1  0
 39 41  2  0
 41 42  1  0
 41 47  1  0
 42 43  2  0
 42 46  1  0
 43 44  1  0
 44 45  2  0
 51 52  1  0
 51 55  1  0
 51 56  1  0
 52 53  1  0
 52 54  1  0
M  END
>  <MODEL>  (84) 
       1

>  <ApoScore>  (84) 
23.2311

$$$$
mol85_score_23.3522
     RDKit          3D

 55 60  0  0  1  0  0  0  0  0999 V2000
    7.3030   -2.5630   23.7950 C   0  0  0  0  0  0  0  0  0  0  0  0
    7.7180   -1.8440   22.5140 C   0  0  1  0  0  0  0  0  0  0  0  0
    6.5430   -1.6460   21.5410 C   0  0  0  0  0  0  0  0  0  0  0  0
    6.8830   -0.4340   20.8310 N   0  0  0  0  0  0  0  0  0  0  0  0
    6.1150    0.0940   19.7640 C   0  0  0  0  0  0  0  0  0  0  0  0
    6.4470   -0.2100   18.4700 C   0  0  0  0  0  0  0  0  0  0  0  0
    5.7720    0.2400   17.3840 N   0  0  0  0  0  0  0  0  0  0  0  0
    4.7420    1.0200   17.5910 C   0  0  0  0  0  0  0  0  0  0  0  0
    4.2910    1.4160   18.8830 C   0  0  0  0  0  0  0  0  0  0  0  0
    3.1700    2.2690   19.0560 C   0  0  0  0  0  0  0  0  0  0  0  0
    2.7560    2.6190   20.3120 C   0  0  0  0  0  0  0  0  0  0  0  0
    3.4390    2.1360   21.4490 C   0  0  0  0  0  0  0  0  0  0  0  0
    4.5300    1.3110   21.3070 C   0  0  0  0  0  0  0  0  0  0  0  0
    4.9880    0.9360   20.0120 C   0  0  0  0  0  0  0  0  0  0  0  0
    5.0540    0.9520   22.1870 H   0  0  0  0  0  0  0  0  0  0  0  0
    3.0980    2.4260   22.4380 H   0  0  0  0  0  0  0  0  0  0  0  0
    1.9030    3.2770   20.4450 H   0  0  0  0  0  0  0  0  0  0  0  0
    2.6600    2.6350   18.1710 H   0  0  0  0  0  0  0  0  0  0  0  0
    4.2040    1.3820   16.7150 H   0  0  0  0  0  0  0  0  0  0  0  0
    7.3060   -0.8470   18.2730 H   0  0  0  0  0  0  0  0  0  0  0  0
    7.8710    0.3190   21.4190 C   0  0  0  0  0  0  0  0  0  0  0  0
    8.2620    1.3790   20.9840 O   0  0  0  0  0  0  0  0  0  0  0  0
    8.3770   -0.4360   22.6750 C   0  0  1  0  0  0  0  0  0  0  0  0
    7.9200    0.2590   23.9740 C   0  0  0  0  0  0  0  0  0  0  0  0
    8.6280    1.5040   24.2090 N   0  0  0  0  0  0  0  0  0  0  0  0
    7.8820    2.6860   24.5910 C   0  0  0  0  0  0  0  0  0  0  0  0
    7.5280    3.6060   23.4630 C   0  0  0  0  0  0  0  0  0  0  0  0
    6.3580    3.8220   22.8190 C   0  0  0  0  0  0  0  0  0  0  0  0
    6.5290    4.8250   21.9210 O   0  0  0  0  0  0  0  0  0  0  0  0
    7.8200    5.1750   22.0580 C   0  0  0  0  0  0  0  0  0  0  0  0
    8.4660    4.4910   22.9440 N   0  0  0  0  0  0  0  0  0  0  0  0
    8.1710    5.9880   21.4360 H   0  0  0  0  0  0  0  0  0  0  0  0
    5.3860    3.3720   22.7830 H   0  0  0  0  0  0  0  0  0  0  0  0
    6.9790    2.3660   25.1180 H   0  0  0  0  0  0  0  0  0  0  0  0
    8.4960    3.2600   25.2830 H   0  0  0  0  0  0  0  0  0  0  0  0
   10.0000    1.5640   24.1790 C   0  0  0  0  0  0  0  0  0  0  0  0
   10.6340    2.4530   24.7250 O   0  0  0  0  0  0  0  0  0  0  0  0
   10.6580    0.4800   23.3820 C   0  0  0  0  0  0  0  0  0  0  0  0
   12.0510    0.4590   23.3000 C   0  0  0  0  0  0  0  0  0  0  0  0
   12.6930   -0.3940   22.4230 C   0  0  0  0  0  0  0  0  0  0  0  0
   11.9030   -1.2120   21.6160 C   0  0  0  0  0  0  0  0  0  0  0  0
   12.4360   -1.9770   20.6490 F   0  0  0  0  0  0  0  0  0  0  0  0
   10.5350   -1.2510   21.7270 C   0  0  0  0  0  0  0  0  0  0  0  0
    9.8880   -0.4320   22.6470 C   0  0  0  0  0  0  0  0  0  0  0  0
   10.0010   -1.9160   21.0580 H   0  0  0  0  0  0  0  0  0  0  0  0
   13.7730   -0.4010   22.3430 H   0  0  0  0  0  0  0  0  0  0  0  0
   12.6170    1.1550   23.9110 H   0  0  0  0  0  0  0  0  0  0  0  0
    8.0850   -0.4280   24.8170 H   0  0  0  0  0  0  0  0  0  0  0  0
    6.8480    0.4740   23.9120 H   0  0  0  0  0  0  0  0  0  0  0  0
    5.5870   -1.5470   22.0800 H   0  0  0  0  0  0  0  0  0  0  0  0
    6.4410   -2.4850   20.8430 H   0  0  0  0  0  0  0  0  0  0  0  0
    8.4480   -2.4860   22.0160 H   0  0  0  0  0  0  0  0  0  0  0  0
    8.1510   -2.6890   24.4770 H   0  0  0  0  0  0  0  0  0  0  0  0
    6.9130   -3.5580   23.5580 H   0  0  0  0  0  0  0  0  0  0  0  0
    6.5160   -2.0150   24.3250 H   0  0  0  0  0  0  0  0  0  0  0  0
  1  2  1  0
  1 53  1  0
  1 54  1  0
  1 55  1  0
  2  3  1  0
  2 23  1  0
  2 52  1  6
  3  4  1  0
  3 50  1  0
  3 51  1  0
  4  5  1  0
  4 21  1  0
  5  6  2  0
  5 14  1  0
  6  7  1  0
  6 20  1  0
  7  8  2  0
  8  9  1  0
  8 19  1  0
  9 10  1  0
  9 14  2  0
 10 11  2  0
 10 18  1  0
 11 12  1  0
 11 17  1  0
 12 13  2  0
 12 16  1  0
 13 14  1  0
 13 15  1  0
 21 22  2  0
 23 21  1  0
 23 24  1  1
 23 44  1  0
 24 25  1  0
 24 48  1  0
 24 49  1  0
 25 26  1  0
 25 36  1  0
 26 27  1  0
 26 34  1  0
 26 35  1  0
 27 28  2  0
 27 31  1  0
 28 29  1  0
 28 33  1  0
 29 30  1  0
 30 31  2  0
 30 32  1  0
 36 37  2  0
 36 38  1  0
 38 39  2  0
 38 44  1  0
 39 40  1  0
 39 47  1  0
 40 41  2  0
 40 46  1  0
 41 42  1  0
 41 43  1  0
 43 44  2  0
 43 45  1  0
M  END
>  <MODEL>  (85) 
       1

>  <ApoScore>  (85) 
23.3522

$$$$
mol86_score_24.8484
     RDKit          3D

 65 70  0  0  1  0  0  0  0  0999 V2000
    5.1240   -3.0790   18.7300 C   0  0  0  0  0  0  0  0  0  0  0  0
    5.7660   -3.6500   19.8900 N   0  0  0  0  0  0  0  0  0  0  0  0
    6.0050   -4.9770   20.0360 C   0  0  0  0  0  0  0  0  0  0  0  0
    5.5290   -5.8440   19.3230 O   0  0  0  0  0  0  0  0  0  0  0  0
    6.9990   -5.3360   21.1520 C   0  0  0  0  0  0  0  0  0  0  0  0
    7.1340   -4.3370   22.2030 N   0  0  0  0  0  0  0  0  0  0  0  0
    8.0540   -3.2070   22.0760 C   0  0  0  0  0  0  0  0  0  0  0  0
    7.4960   -1.9390   22.7620 C   0  0  2  0  0  0  0  0  0  0  0  0
    6.3190   -1.3150   21.9660 C   0  0  0  0  0  0  0  0  0  0  0  0
    5.1410   -1.5760   22.0860 O   0  0  0  0  0  0  0  0  0  0  0  0
    6.8370   -0.4190   21.0440 N   0  0  0  0  0  0  0  0  0  0  0  0
    6.1470    0.1340   19.9410 C   0  0  0  0  0  0  0  0  0  0  0  0
    6.6470   -0.0310   18.6700 C   0  0  0  0  0  0  0  0  0  0  0  0
    6.0330    0.4110   17.5510 N   0  0  0  0  0  0  0  0  0  0  0  0
    4.9250    1.1000   17.6820 C   0  0  0  0  0  0  0  0  0  0  0  0
    4.3470    1.4210   18.9420 C   0  0  0  0  0  0  0  0  0  0  0  0
    3.1980    2.2510   19.0500 C   0  0  0  0  0  0  0  0  0  0  0  0
    2.7120    2.6070   20.2780 C   0  0  0  0  0  0  0  0  0  0  0  0
    3.3430    2.1420   21.4530 C   0  0  0  0  0  0  0  0  0  0  0  0
    4.4390    1.3200   21.3760 C   0  0  0  0  0  0  0  0  0  0  0  0
    4.9700    0.9360   20.1140 C   0  0  0  0  0  0  0  0  0  0  0  0
    4.9170    0.9660   22.2800 H   0  0  0  0  0  0  0  0  0  0  0  0
    2.9720    2.4480   22.4260 H   0  0  0  0  0  0  0  0  0  0  0  0
    1.8500    3.2650   20.3610 H   0  0  0  0  0  0  0  0  0  0  0  0
    2.7370    2.6170   18.1350 H   0  0  0  0  0  0  0  0  0  0  0  0
    4.4390    1.4490   16.7700 H   0  0  0  0  0  0  0  0  0  0  0  0
    7.5610   -0.5970   18.5040 H   0  0  0  0  0  0  0  0  0  0  0  0
    8.2500   -0.1730   21.2390 C   0  0  0  0  0  0  0  0  0  0  0  0
    8.5130   -0.7650   22.6280 C   0  0  2  0  0  0  0  0  0  0  0  0
    9.9850   -1.0690   22.7630 C   0  0  0  0  0  0  0  0  0  0  0  0
   10.3500   -1.5240   24.0810 N   0  0  0  0  0  0  0  0  0  0  0  0
   11.6480   -1.7290   24.3650 C   0  0  0  0  0  0  0  0  0  0  0  0
   11.9660   -2.2270   25.5730 N   0  0  0  0  0  0  0  0  0  0  0  0
   13.2650   -2.3780   25.7580 C   0  0  0  0  0  0  0  0  0  0  0  0
   14.2470   -2.0910   24.8960 N   0  0  0  0  0  0  0  0  0  0  0  0
   13.7960   -1.6110   23.7360 C   0  0  0  0  0  0  0  0  0  0  0  0
   12.5360   -1.3900   23.4120 N   0  0  0  0  0  0  0  0  0  0  0  0
   14.5400   -1.3600   22.9820 H   0  0  0  0  0  0  0  0  0  0  0  0
   13.5710   -2.7820   26.7220 H   0  0  0  0  0  0  0  0  0  0  0  0
    9.6680   -1.9010   24.7240 H   0  0  0  0  0  0  0  0  0  0  0  0
   10.5710   -0.1710   22.5470 H   0  0  0  0  0  0  0  0  0  0  0  0
   10.2970   -1.8170   22.0170 H   0  0  0  0  0  0  0  0  0  0  0  0
    8.2310   -0.0120   23.3710 H   0  0  0  0  0  0  0  0  0  0  0  0
    8.8720   -0.6660   20.4730 H   0  0  0  0  0  0  0  0  0  0  0  0
    8.4610    0.9010   21.1990 H   0  0  0  0  0  0  0  0  0  0  0  0
    7.0600   -2.3330   24.1590 C   0  0  0  0  0  0  0  0  0  0  0  0
    6.7430   -1.3380   25.0920 C   0  0  0  0  0  0  0  0  0  0  0  0
    6.3330   -1.6930   26.3660 C   0  0  0  0  0  0  0  0  0  0  0  0
    5.8960   -0.4360   27.4850 Cl  0  0  0  0  0  0  0  0  0  0  0  0
    6.2110   -3.0280   26.7530 C   0  0  0  0  0  0  0  0  0  0  0  0
    6.4610   -4.0170   25.8190 C   0  0  0  0  0  0  0  0  0  0  0  0
    6.8390   -3.6760   24.5180 C   0  0  0  0  0  0  0  0  0  0  0  0
    6.8760   -4.7680   23.4910 C   0  0  0  0  0  0  0  0  0  0  0  0
    6.6480   -5.9340   23.7700 O   0  0  0  0  0  0  0  0  0  0  0  0
    6.3320   -5.0680   26.0690 H   0  0  0  0  0  0  0  0  0  0  0  0
    5.8690   -3.2730   27.7530 H   0  0  0  0  0  0  0  0  0  0  0  0
    6.7570   -0.2890   24.8150 H   0  0  0  0  0  0  0  0  0  0  0  0
    9.0110   -3.4750   22.5550 H   0  0  0  0  0  0  0  0  0  0  0  0
    8.2670   -2.9740   21.0330 H   0  0  0  0  0  0  0  0  0  0  0  0
    6.6480   -6.2570   21.6230 H   0  0  0  0  0  0  0  0  0  0  0  0
    7.9860   -5.5830   20.7260 H   0  0  0  0  0  0  0  0  0  0  0  0
    6.2930   -3.0200   20.4730 H   0  0  0  0  0  0  0  0  0  0  0  0
    5.7130   -3.2070   17.8110 H   0  0  0  0  0  0  0  0  0  0  0  0
    4.1390   -3.5070   18.6220 H   0  0  0  0  0  0  0  0  0  0  0  0
    4.9610   -2.0140   18.9030 H   0  0  0  0  0  0  0  0  0  0  0  0
  1  2  1  0
  1 63  1  0
  1 64  1  0
  1 65  1  0
  2  3  1  0
  2 62  1  0
  3  4  2  0
  3  5  1  0
  5  6  1  0
  5 60  1  0
  5 61  1  0
  6  7  1  0
  6 53  1  0
  8  7  1  6
  7 58  1  0
  7 59  1  0
  8  9  1  0
  8 29  1  0
  8 46  1  0
  9 10  2  0
  9 11  1  0
 11 12  1  0
 11 28  1  0
 12 13  2  0
 12 21  1  0
 13 14  1  0
 13 27  1  0
 14 15  2  0
 15 16  1  0
 15 26  1  0
 16 17  1  0
 16 21  2  0
 17 18  2  0
 17 25  1  0
 18 19  1  0
 18 24  1  0
 19 20  2  0
 19 23  1  0
 20 21  1  0
 20 22  1  0
 28 29  1  0
 28 44  1  0
 28 45  1  0
 29 30  1  0
 29 43  1  1
 30 31  1  0
 30 41  1  0
 30 42  1  0
 31 32  1  0
 31 40  1  0
 32 33  2  0
 32 37  1  0
 33 34  1  0
 34 35  2  0
 34 39  1  0
 35 36  1  0
 36 37  2  0
 36 38  1  0
 46 47  1  0
 46 52  2  0
 47 48  2  0
 47 57  1  0
 48 49  1  0
 48 50  1  0
 50 51  2  0
 50 56  1  0
 51 52  1  0
 51 55  1  0
 52 53  1  0
 53 54  2  0
M  END
>  <MODEL>  (86) 
       1

>  <ApoScore>  (86) 
24.8484

$$$$
mol87_score_25.4870
     RDKit          3D

 63 68  0  0  1  0  0  0  0  0999 V2000
    7.5070    5.0580   22.2000 C   0  0  0  0  0  0  0  0  0  0  0  0
    8.0310    4.0830   23.1450 N   0  0  0  0  0  0  0  0  0  0  0  0
    7.1940    3.2310   23.7880 C   0  0  0  0  0  0  0  0  0  0  0  0
    6.0260    3.0700   23.4680 O   0  0  0  0  0  0  0  0  0  0  0  0
    7.8230    2.4770   24.9720 C   0  0  0  0  0  0  0  0  0  0  0  0
    8.5410    1.2880   24.5470 N   0  0  0  0  0  0  0  0  0  0  0  0
    7.7710    0.1420   24.0980 C   0  0  0  0  0  0  0  0  0  0  0  0
    8.3950   -0.5850   22.8650 C   0  0  2  0  0  0  0  0  0  0  0  0
    8.0860    0.2510   21.5850 C   0  0  0  0  0  0  0  0  0  0  0  0
    8.6380    1.2570   21.1960 O   0  0  0  0  0  0  0  0  0  0  0  0
    6.9820   -0.3200   20.9730 N   0  0  0  0  0  0  0  0  0  0  0  0
    6.2830    0.2420   19.8770 C   0  0  0  0  0  0  0  0  0  0  0  0
    6.6590   -0.0560   18.5950 C   0  0  0  0  0  0  0  0  0  0  0  0
    5.9800    0.3390   17.4900 N   0  0  0  0  0  0  0  0  0  0  0  0
    4.8830    1.0340   17.6610 C   0  0  0  0  0  0  0  0  0  0  0  0
    4.3840    1.4310   18.9350 C   0  0  0  0  0  0  0  0  0  0  0  0
    3.2120    2.2220   19.0890 C   0  0  0  0  0  0  0  0  0  0  0  0
    2.7700    2.5700   20.3350 C   0  0  0  0  0  0  0  0  0  0  0  0
    3.4740    2.1470   21.4860 C   0  0  0  0  0  0  0  0  0  0  0  0
    4.6130    1.3910   21.3630 C   0  0  0  0  0  0  0  0  0  0  0  0
    5.0970    1.0170   20.0830 C   0  0  0  0  0  0  0  0  0  0  0  0
    5.1700    1.1090   22.2500 H   0  0  0  0  0  0  0  0  0  0  0  0
    3.1250    2.4320   22.4730 H   0  0  0  0  0  0  0  0  0  0  0  0
    1.8790    3.1810   20.4500 H   0  0  0  0  0  0  0  0  0  0  0  0
    2.6820    2.5490   18.1980 H   0  0  0  0  0  0  0  0  0  0  0  0
    4.3310    1.3220   16.7640 H   0  0  0  0  0  0  0  0  0  0  0  0
    7.5510   -0.6580   18.4260 H   0  0  0  0  0  0  0  0  0  0  0  0
    6.4780   -1.5100   21.6180 C   0  0  0  0  0  0  0  0  0  0  0  0
    7.6320   -1.8950   22.5490 C   0  0  2  0  0  0  0  0  0  0  0  0
    7.2040   -2.7360   23.7620 C   0  0  0  0  0  0  0  0  0  0  0  0
    6.7540   -4.0560   23.3560 N   0  0  0  0  0  0  0  0  0  0  0  0
    7.5620   -5.0740   22.9780 C   0  0  0  0  0  0  0  0  0  0  0  0
    6.8010   -5.9320   22.2170 C   0  0  0  0  0  0  0  0  0  0  0  0
    5.5100   -5.3560   22.2360 C   0  0  0  0  0  0  0  0  0  0  0  0
    5.4970   -4.2110   22.9070 N   0  0  0  0  0  0  0  0  0  0  0  0
    4.5950   -5.7030   21.7740 H   0  0  0  0  0  0  0  0  0  0  0  0
    7.1380   -6.8190   21.6960 H   0  0  0  0  0  0  0  0  0  0  0  0
    8.5980   -5.1010   23.2960 H   0  0  0  0  0  0  0  0  0  0  0  0
    8.0480   -2.8650   24.4490 H   0  0  0  0  0  0  0  0  0  0  0  0
    6.3690   -2.2690   24.2920 H   0  0  0  0  0  0  0  0  0  0  0  0
    8.3160   -2.5060   21.9540 H   0  0  0  0  0  0  0  0  0  0  0  0
    6.2570   -2.2810   20.8710 H   0  0  0  0  0  0  0  0  0  0  0  0
    5.5380   -1.3220   22.1630 H   0  0  0  0  0  0  0  0  0  0  0  0
    9.8780   -0.8010   23.1430 C   0  0  0  0  0  0  0  0  0  0  0  0
   10.6520   -1.7790   22.4870 C   0  0  0  0  0  0  0  0  0  0  0  0
   11.9890   -1.9510   22.8230 C   0  0  0  0  0  0  0  0  0  0  0  0
   12.9710   -3.0910   21.9350 Cl  0  0  0  0  0  0  0  0  0  0  0  0
   12.6140   -1.1730   23.7960 C   0  0  0  0  0  0  0  0  0  0  0  0
   11.8860   -0.1550   24.3750 C   0  0  0  0  0  0  0  0  0  0  0  0
   10.5500    0.0520   24.0280 C   0  0  0  0  0  0  0  0  0  0  0  0
    9.9000    1.3220   24.4790 C   0  0  0  0  0  0  0  0  0  0  0  0
   10.5480    2.3210   24.7690 O   0  0  0  0  0  0  0  0  0  0  0  0
   12.3530    0.5490   25.0580 H   0  0  0  0  0  0  0  0  0  0  0  0
   13.6580   -1.3470   24.0490 H   0  0  0  0  0  0  0  0  0  0  0  0
   10.2390   -2.3920   21.6940 H   0  0  0  0  0  0  0  0  0  0  0  0
    6.7680    0.4960   23.8480 H   0  0  0  0  0  0  0  0  0  0  0  0
    7.6750   -0.5690   24.9220 H   0  0  0  0  0  0  0  0  0  0  0  0
    7.0120    2.2050   25.6530 H   0  0  0  0  0  0  0  0  0  0  0  0
    8.5240    3.1190   25.5100 H   0  0  0  0  0  0  0  0  0  0  0  0
    8.9940    4.1210   23.4400 H   0  0  0  0  0  0  0  0  0  0  0  0
    8.3160    5.6600   21.7850 H   0  0  0  0  0  0  0  0  0  0  0  0
    7.0090    4.5340   21.3840 H   0  0  0  0  0  0  0  0  0  0  0  0
    6.7690    5.7270   22.6610 H   0  0  0  0  0  0  0  0  0  0  0  0
  1  2  1  0
  1 61  1  0
  1 62  1  0
  1 63  1  0
  2  3  1  0
  2 60  1  0
  3  4  2  0
  3  5  1  0
  5  6  1  0
  5 58  1  0
  5 59  1  0
  6  7  1  0
  6 51  1  0
  8  7  1  1
  7 56  1  0
  7 57  1  0
  8  9  1  0
  8 29  1  0
  8 44  1  0
  9 10  2  0
  9 11  1  0
 11 12  1  0
 11 28  1  0
 12 13  2  0
 12 21  1  0
 13 14  1  0
 13 27  1  0
 14 15  2  0
 15 16  1  0
 15 26  1  0
 16 17  1  0
 16 21  2  0
 17 18  2  0
 17 25  1  0
 18 19  1  0
 18 24  1  0
 19 20  2  0
 19 23  1  0
 20 21  1  0
 20 22  1  0
 28 29  1  0
 28 42  1  0
 28 43  1  0
 29 30  1  0
 29 41  1  6
 30 31  1  0
 30 39  1  0
 30 40  1  0
 31 32  1  0
 31 35  1  0
 32 33  2  0
 32 38  1  0
 33 34  1  0
 33 37  1  0
 34 35  2  0
 34 36  1  0
 44 45  1  0
 44 50  2  0
 45 46  2  0
 45 55  1  0
 46 47  1  0
 46 48  1  0
 48 49  2  0
 48 54  1  0
 49 50  1  0
 49 53  1  0
 50 51  1  0
 51 52  2  0
M  END
>  <MODEL>  (87) 
       1

>  <ApoScore>  (87) 
25.4870

$$$$
mol88_score_23.4529
     RDKit          3D

 64 68  0  0  0  0  0  0  0  0999 V2000
    2.6500   -3.1750   27.0880 C   0  0  0  0  0  0  0  0  0  0  0  0
    3.6610   -3.9770   27.9220 C   0  0  0  0  0  0  0  0  0  0  0  0
    4.8780   -4.2810   27.0540 C   0  0  0  0  0  0  0  0  0  0  0  0
    5.7530   -3.4270   27.0310 O   0  0  0  0  0  0  0  0  0  0  0  0
    4.8230   -5.3040   26.1100 N   0  0  0  0  0  0  0  0  0  0  0  0
    3.8900   -6.4220   26.2980 C   0  0  0  0  0  0  0  0  0  0  0  0
    4.4490   -7.7000   25.6620 C   0  0  0  0  0  0  0  0  0  0  0  0
    4.7660   -7.4950   24.1760 C   0  0  0  0  0  0  0  0  0  0  0  0
    5.3820   -6.1430   23.8820 C   0  0  0  0  0  0  0  0  0  0  0  0
    5.8920   -5.8980   22.5980 C   0  0  0  0  0  0  0  0  0  0  0  0
    6.3410   -4.6260   22.2470 C   0  0  0  0  0  0  0  0  0  0  0  0
    6.3260   -3.5900   23.1750 C   0  0  0  0  0  0  0  0  0  0  0  0
    6.6850   -2.3060   22.7680 N   0  0  0  0  0  0  0  0  0  0  0  0
    7.5620   -1.4830   23.6020 C   0  0  0  0  0  0  0  0  0  0  0  0
    8.9860   -1.4780   23.0950 C   0  0  0  0  0  0  0  0  0  0  0  0
    9.7320   -2.6640   23.0870 C   0  0  0  0  0  0  0  0  0  0  0  0
   11.0750   -2.6410   22.7000 C   0  0  0  0  0  0  0  0  0  0  0  0
   11.6960   -1.4530   22.3390 C   0  0  0  0  0  0  0  0  0  0  0  0
   10.9810   -0.2610   22.3630 C   0  0  0  0  0  0  0  0  0  0  0  0
   11.8820    1.3770   21.9820 Br  0  0  0  0  0  0  0  0  0  0  0  0
    9.6270   -0.2750   22.7220 C   0  0  0  0  0  0  0  0  0  0  0  0
    9.1030    0.6730   22.7210 H   0  0  0  0  0  0  0  0  0  0  0  0
   12.7380   -1.4560   22.0440 H   0  0  0  0  0  0  0  0  0  0  0  0
   11.6620   -3.5430   22.6840 H   0  0  0  0  0  0  0  0  0  0  0  0
    9.2860   -3.6040   23.4000 H   0  0  0  0  0  0  0  0  0  0  0  0
    7.2130   -0.4500   23.6340 H   0  0  0  0  0  0  0  0  0  0  0  0
    7.5270   -1.8530   24.6330 H   0  0  0  0  0  0  0  0  0  0  0  0
    6.2200   -1.8400   21.5430 C   0  0  0  0  0  0  0  0  0  0  0  0
    5.3970   -2.5060   20.9200 O   0  0  0  0  0  0  0  0  0  0  0  0
    6.8250   -0.5620   20.9390 C   0  0  0  0  0  0  0  0  0  0  0  0
    6.0640    0.0410   19.7570 C   0  0  0  0  0  0  0  0  0  0  0  0
    6.4530   -0.2140   18.4250 C   0  0  0  0  0  0  0  0  0  0  0  0
    5.8080    0.2880   17.3580 N   0  0  0  0  0  0  0  0  0  0  0  0
    4.7340    1.0690   17.5730 C   0  0  0  0  0  0  0  0  0  0  0  0
    4.2740    1.3870   18.8580 C   0  0  0  0  0  0  0  0  0  0  0  0
    3.1520    2.2080   19.0550 C   0  0  0  0  0  0  0  0  0  0  0  0
    2.7440    2.5550   20.3470 C   0  0  0  0  0  0  0  0  0  0  0  0
    3.4490    2.0800   21.4550 C   0  0  0  0  0  0  0  0  0  0  0  0
    4.5480    1.2370   21.2620 C   0  0  0  0  0  0  0  0  0  0  0  0
    4.9640    0.8810   19.9720 C   0  0  0  0  0  0  0  0  0  0  0  0
    5.0960    0.8640   22.1190 H   0  0  0  0  0  0  0  0  0  0  0  0
    3.1500    2.3650   22.4600 H   0  0  0  0  0  0  0  0  0  0  0  0
    1.8880    3.2060   20.4920 H   0  0  0  0  0  0  0  0  0  0  0  0
    2.6020    2.5980   18.2040 H   0  0  0  0  0  0  0  0  0  0  0  0
    4.2020    1.4700   16.7140 H   0  0  0  0  0  0  0  0  0  0  0  0
    7.3210   -0.8440   18.2480 H   0  0  0  0  0  0  0  0  0  0  0  0
    6.8890    0.1780   21.7400 H   0  0  0  0  0  0  0  0  0  0  0  0
    7.8450   -0.7960   20.6320 H   0  0  0  0  0  0  0  0  0  0  0  0
    5.8610   -3.8330   24.4580 C   0  0  0  0  0  0  0  0  0  0  0  0
    5.3870   -5.1040   24.8370 C   0  0  0  0  0  0  0  0  0  0  0  0
    5.8110   -2.9780   25.1200 H   0  0  0  0  0  0  0  0  0  0  0  0
    6.6860   -4.4000   21.2430 H   0  0  0  0  0  0  0  0  0  0  0  0
    5.9180   -6.6920   21.8580 H   0  0  0  0  0  0  0  0  0  0  0  0
    5.4460   -8.2860   23.8420 H   0  0  0  0  0  0  0  0  0  0  0  0
    3.8370   -7.5820   23.6010 H   0  0  0  0  0  0  0  0  0  0  0  0
    3.7320   -8.5210   25.7780 H   0  0  0  0  0  0  0  0  0  0  0  0
    5.3600   -7.9950   26.1860 H   0  0  0  0  0  0  0  0  0  0  0  0
    3.7490   -6.6100   27.3670 H   0  0  0  0  0  0  0  0  0  0  0  0
    2.9130   -6.1780   25.8660 H   0  0  0  0  0  0  0  0  0  0  0  0
    3.2220   -4.9090   28.2820 H   0  0  0  0  0  0  0  0  0  0  0  0
    3.9780   -3.3950   28.7920 H   0  0  0  0  0  0  0  0  0  0  0  0
    2.2840   -3.7800   26.2520 H   0  0  0  0  0  0  0  0  0  0  0  0
    1.7970   -2.8650   27.6950 H   0  0  0  0  0  0  0  0  0  0  0  0
    3.1130   -2.2710   26.6800 H   0  0  0  0  0  0  0  0  0  0  0  0
  1  2  1  0
  1 62  1  0
  1 63  1  0
  1 64  1  0
  2  3  1  0
  2 60  1  0
  2 61  1  0
  3  4  2  0
  3  5  1  0
  5  6  1  0
  5 50  1  0
  6  7  1  0
  6 58  1  0
  6 59  1  0
  7  8  1  0
  7 56  1  0
  7 57  1  0
  8  9  1  0
  8 54  1  0
  8 55  1  0
  9 10  1  0
  9 50  2  0
 10 11  2  0
 10 53  1  0
 11 12  1  0
 11 52  1  0
 12 13  1  0
 12 49  2  0
 13 14  1  0
 13 28  1  0
 14 15  1  0
 14 26  1  0
 14 27  1  0
 15 16  2  0
 15 21  1  0
 16 17  1  0
 16 25  1  0
 17 18  2  0
 17 24  1  0
 18 19  1  0
 18 23  1  0
 19 20  1  0
 19 21  2  0
 21 22  1  0
 28 29  2  0
 28 30  1  0
 30 31  1  0
 30 47  1  0
 30 48  1  0
 31 32  2  0
 31 40  1  0
 32 33  1  0
 32 46  1  0
 33 34  2  0
 34 35  1  0
 34 45  1  0
 35 36  1  0
 35 40  2  0
 36 37  2  0
 36 44  1  0
 37 38  1  0
 37 43  1  0
 38 39  2  0
 38 42  1  0
 39 40  1  0
 39 41  1  0
 49 50  1  0
 49 51  1  0
M  END
>  <MODEL>  (88) 
       1

>  <ApoScore>  (88) 
23.4529

$$$$
mol89_score_16.8919
     RDKit          3D

 38 40  0  0  0  0  0  0  0  0999 V2000
    7.8330    1.5230   20.7530 O   0  0  0  0  0  0  0  0  0  0  0  0
    7.7980    0.3980   21.2290 C   0  0  0  0  0  0  0  0  0  0  0  0
    6.7920   -0.6490   20.7490 C   0  0  0  0  0  0  0  0  0  0  0  0
    5.9870   -0.0520   19.6500 C   0  0  0  0  0  0  0  0  0  0  0  0
    6.3600   -0.2590   18.3490 C   0  0  0  0  0  0  0  0  0  0  0  0
    5.7400    0.2710   17.2660 N   0  0  0  0  0  0  0  0  0  0  0  0
    4.7210    1.0650   17.5030 C   0  0  0  0  0  0  0  0  0  0  0  0
    4.2620    1.4070   18.8070 C   0  0  0  0  0  0  0  0  0  0  0  0
    3.1700    2.2900   19.0040 C   0  0  0  0  0  0  0  0  0  0  0  0
    2.7760    2.6420   20.2690 C   0  0  0  0  0  0  0  0  0  0  0  0
    3.4790    2.1490   21.3910 C   0  0  0  0  0  0  0  0  0  0  0  0
    4.5400    1.2900   21.2280 C   0  0  0  0  0  0  0  0  0  0  0  0
    4.9360    0.8680   19.9230 C   0  0  0  0  0  0  0  0  0  0  0  0
    5.0950    0.9570   22.1000 H   0  0  0  0  0  0  0  0  0  0  0  0
    3.1680    2.4490   22.3910 H   0  0  0  0  0  0  0  0  0  0  0  0
    1.9320    3.3120   20.4160 H   0  0  0  0  0  0  0  0  0  0  0  0
    2.6610    2.6830   18.1280 H   0  0  0  0  0  0  0  0  0  0  0  0
    4.1860    1.4690   16.6410 H   0  0  0  0  0  0  0  0  0  0  0  0
    7.2390   -0.8700   18.1380 H   0  0  0  0  0  0  0  0  0  0  0  0
    7.3390   -1.5320   20.3890 H   0  0  0  0  0  0  0  0  0  0  0  0
    6.1650   -0.9650   21.5940 H   0  0  0  0  0  0  0  0  0  0  0  0
    8.6430    0.0330   22.2360 N   0  0  0  0  0  0  0  0  0  0  0  0
    9.4510    1.0860   22.8260 C   0  0  0  0  0  0  0  0  0  0  0  0
   10.8360    1.2220   22.2440 C   0  0  0  0  0  0  0  0  0  0  0  0
   11.7350    0.2460   22.3050 C   0  0  0  0  0  0  0  0  0  0  0  0
   11.4570   -1.0910   22.9570 C   0  0  0  0  0  0  0  0  0  0  0  0
   10.2350   -1.8860   22.4400 C   0  0  0  0  0  0  0  0  0  0  0  0
    8.8640   -1.2930   22.7810 C   0  0  0  0  0  0  0  0  0  0  0  0
    8.7750   -1.2120   23.8740 H   0  0  0  0  0  0  0  0  0  0  0  0
    8.0670   -1.9640   22.4560 H   0  0  0  0  0  0  0  0  0  0  0  0
   10.3030   -2.0430   21.3520 H   0  0  0  0  0  0  0  0  0  0  0  0
   10.2820   -2.8760   22.9120 H   0  0  0  0  0  0  0  0  0  0  0  0
   12.3430   -1.7210   22.8300 H   0  0  0  0  0  0  0  0  0  0  0  0
   11.3470   -0.9350   24.0480 H   0  0  0  0  0  0  0  0  0  0  0  0
   12.7420    0.4410   21.9280 H   0  0  0  0  0  0  0  0  0  0  0  0
   11.0820    2.1630   21.7520 H   0  0  0  0  0  0  0  0  0  0  0  0
    9.5510    0.7740   23.8730 H   0  0  0  0  0  0  0  0  0  0  0  0
    8.9140    2.0390   22.7530 H   0  0  0  0  0  0  0  0  0  0  0  0
  1  2  2  0
  2  3  1  0
  2 22  1  0
  3  4  1  0
  3 20  1  0
  3 21  1  0
  4  5  2  0
  4 13  1  0
  5  6  1  0
  5 19  1  0
  6  7  2  0
  7  8  1  0
  7 18  1  0
  8  9  1  0
  8 13  2  0
  9 10  2  0
  9 17  1  0
 10 11  1  0
 10 16  1  0
 11 12  2  0
 11 15  1  0
 12 13  1  0
 12 14  1  0
 22 23  1  0
 22 28  1  0
 23 24  1  0
 23 37  1  0
 23 38  1  0
 24 25  2  0
 24 36  1  0
 25 26  1  0
 25 35  1  0
 26 27  1  0
 26 33  1  0
 26 34  1  0
 27 28  1  0
 27 31  1  0
 27 32  1  0
 28 29  1  0
 28 30  1  0
M  END
>  <MODEL>  (89) 
       1

>  <ApoScore>  (89) 
16.8919

$$$$
mol90_score_21.7601
     RDKit          3D

 62 67  0  0  1  0  0  0  0  0999 V2000
    7.5620   -2.7220   23.6120 C   0  0  0  0  0  0  0  0  0  0  0  0
    7.9370   -1.8210   22.4260 C   0  0  1  0  0  0  0  0  0  0  0  0
    6.7900   -1.7070   21.3950 C   0  0  0  0  0  0  0  0  0  0  0  0
    6.9510   -0.3800   20.8310 N   0  0  0  0  0  0  0  0  0  0  0  0
    6.1480    0.1130   19.7630 C   0  0  0  0  0  0  0  0  0  0  0  0
    6.4460   -0.2210   18.4660 C   0  0  0  0  0  0  0  0  0  0  0  0
    5.7630    0.2210   17.3810 N   0  0  0  0  0  0  0  0  0  0  0  0
    4.7430    1.0190   17.5910 C   0  0  0  0  0  0  0  0  0  0  0  0
    4.3010    1.4220   18.8840 C   0  0  0  0  0  0  0  0  0  0  0  0
    3.1780    2.2790   19.0600 C   0  0  0  0  0  0  0  0  0  0  0  0
    2.7650    2.6280   20.3190 C   0  0  0  0  0  0  0  0  0  0  0  0
    3.4440    2.1300   21.4520 C   0  0  0  0  0  0  0  0  0  0  0  0
    4.5310    1.3000   21.3040 C   0  0  0  0  0  0  0  0  0  0  0  0
    5.0070    0.9460   20.0080 C   0  0  0  0  0  0  0  0  0  0  0  0
    5.0340    0.9070   22.1810 H   0  0  0  0  0  0  0  0  0  0  0  0
    3.1080    2.4140   22.4460 H   0  0  0  0  0  0  0  0  0  0  0  0
    1.9140    3.2910   20.4500 H   0  0  0  0  0  0  0  0  0  0  0  0
    2.6640    2.6510   18.1790 H   0  0  0  0  0  0  0  0  0  0  0  0
    4.2130    1.3850   16.7130 H   0  0  0  0  0  0  0  0  0  0  0  0
    7.2890   -0.8760   18.2560 H   0  0  0  0  0  0  0  0  0  0  0  0
    7.7770    0.4450   21.5590 C   0  0  0  0  0  0  0  0  0  0  0  0
    7.9940    1.6110   21.2930 O   0  0  0  0  0  0  0  0  0  0  0  0
    8.3630   -0.3500   22.7560 C   0  0  1  0  0  0  0  0  0  0  0  0
    7.7350    0.1580   24.0770 C   0  0  0  0  0  0  0  0  0  0  0  0
    8.2250    1.4760   24.4490 N   0  0  0  0  0  0  0  0  0  0  0  0
    7.2650    2.4520   24.9520 C   0  0  0  0  0  0  0  0  0  0  0  0
    6.6800    3.3360   23.8630 C   0  0  0  0  0  0  0  0  0  0  0  0
    7.7200    4.2320   23.2880 N   0  0  0  0  0  0  0  0  0  0  0  0
    8.1510    5.4440   24.1640 C   0  0  0  0  0  0  0  0  0  0  0  0
    7.6360    6.4600   23.0920 C   0  0  0  0  0  0  0  0  0  0  0  0
    7.2500    5.2190   22.2220 C   0  0  0  0  0  0  0  0  0  0  0  0
    6.1900    5.0760   22.0160 H   0  0  0  0  0  0  0  0  0  0  0  0
    7.8150    5.0680   21.3080 H   0  0  0  0  0  0  0  0  0  0  0  0
    6.7810    7.0660   23.4130 H   0  0  0  0  0  0  0  0  0  0  0  0
    8.3840    7.1350   22.6660 H   0  0  0  0  0  0  0  0  0  0  0  0
    9.2200    5.4070   24.3460 H   0  0  0  0  0  0  0  0  0  0  0  0
    7.6140    5.4400   25.1100 H   0  0  0  0  0  0  0  0  0  0  0  0
    8.4990    3.6480   22.9400 H   0  0  0  0  0  0  0  0  0  0  0  0
    5.8720    3.9530   24.2690 H   0  0  0  0  0  0  0  0  0  0  0  0
    6.2810    2.7410   23.0410 H   0  0  0  0  0  0  0  0  0  0  0  0
    6.4460    1.9050   25.4340 H   0  0  0  0  0  0  0  0  0  0  0  0
    7.7690    3.0460   25.7170 H   0  0  0  0  0  0  0  0  0  0  0  0
    9.5650    1.7350   24.5090 C   0  0  0  0  0  0  0  0  0  0  0  0
   10.0320    2.6910   25.1240 O   0  0  0  0  0  0  0  0  0  0  0  0
   10.4370    0.8260   23.6800 C   0  0  0  0  0  0  0  0  0  0  0  0
   11.8190    1.0180   23.6910 C   0  0  0  0  0  0  0  0  0  0  0  0
   12.6360    0.3680   22.7830 C   0  0  0  0  0  0  0  0  0  0  0  0
   12.0380   -0.4410   21.8170 C   0  0  0  0  0  0  0  0  0  0  0  0
   12.9500   -1.0710   20.4790 Cl  0  0  0  0  0  0  0  0  0  0  0  0
   10.6860   -0.7140   21.8530 C   0  0  0  0  0  0  0  0  0  0  0  0
    9.8650   -0.1180   22.8170 C   0  0  0  0  0  0  0  0  0  0  0  0
   10.2850   -1.3610   21.0830 H   0  0  0  0  0  0  0  0  0  0  0  0
   13.7090    0.5090   22.8030 H   0  0  0  0  0  0  0  0  0  0  0  0
   12.2260    1.7380   24.3890 H   0  0  0  0  0  0  0  0  0  0  0  0
    7.9710   -0.5670   24.8720 H   0  0  0  0  0  0  0  0  0  0  0  0
    6.6450    0.2110   23.9540 H   0  0  0  0  0  0  0  0  0  0  0  0
    6.8530   -2.4680   20.6070 H   0  0  0  0  0  0  0  0  0  0  0  0
    5.8100   -1.8200   21.8860 H   0  0  0  0  0  0  0  0  0  0  0  0
    8.7890   -2.2860   21.9240 H   0  0  0  0  0  0  0  0  0  0  0  0
    7.3410   -3.7410   23.2690 H   0  0  0  0  0  0  0  0  0  0  0  0
    8.3740   -2.7880   24.3470 H   0  0  0  0  0  0  0  0  0  0  0  0
    6.6680   -2.3500   24.1300 H   0  0  0  0  0  0  0  0  0  0  0  0
  1  2  1  0
  1 60  1  0
  1 61  1  0
  1 62  1  0
  2  3  1  0
  2 23  1  0
  2 59  1  6
  3  4  1  0
  3 57  1  0
  3 58  1  0
  4  5  1  0
  4 21  1  0
  5  6  2  0
  5 14  1  0
  6  7  1  0
  6 20  1  0
  7  8  2  0
  8  9  1  0
  8 19  1  0
  9 10  1  0
  9 14  2  0
 10 11  2  0
 10 18  1  0
 11 12  1  0
 11 17  1  0
 12 13  2  0
 12 16  1  0
 13 14  1  0
 13 15  1  0
 21 22  2  0
 23 21  1  0
 23 24  1  1
 23 51  1  0
 24 25  1  0
 24 55  1  0
 24 56  1  0
 25 26  1  0
 25 43  1  0
 26 27  1  0
 26 41  1  0
 26 42  1  0
 27 28  1  0
 27 39  1  0
 27 40  1  0
 28 29  1  0
 28 31  1  0
 28 38  1  0
 29 30  1  0
 29 36  1  0
 29 37  1  0
 30 31  1  0
 30 34  1  0
 30 35  1  0
 31 32  1  0
 31 33  1  0
 43 44  2  0
 43 45  1  0
 45 46  2  0
 45 51  1  0
 46 47  1  0
 46 54  1  0
 47 48  2  0
 47 53  1  0
 48 49  1  0
 48 50  1  0
 50 51  2  0
 50 52  1  0
M  CHG  1  28   1
M  END
>  <MODEL>  (90) 
       1

>  <ApoScore>  (90) 
21.7601

$$$$
mol91_score_23.1574
     RDKit          3D

 56 61  0  0  1  0  0  0  0  0999 V2000
    7.7770   -2.9170   23.3530 C   0  0  0  0  0  0  0  0  0  0  0  0
    8.0660   -1.8820   22.2650 C   0  0  1  0  0  0  0  0  0  0  0  0
    6.8990   -1.7330   21.2780 C   0  0  0  0  0  0  0  0  0  0  0  0
    7.0020   -0.3630   20.8230 N   0  0  0  0  0  0  0  0  0  0  0  0
    6.1940    0.1450   19.7750 C   0  0  0  0  0  0  0  0  0  0  0  0
    6.4720   -0.2290   18.4860 C   0  0  0  0  0  0  0  0  0  0  0  0
    5.7910    0.1950   17.3950 N   0  0  0  0  0  0  0  0  0  0  0  0
    4.7800    1.0050   17.5970 C   0  0  0  0  0  0  0  0  0  0  0  0
    4.3400    1.4200   18.8870 C   0  0  0  0  0  0  0  0  0  0  0  0
    3.2070    2.2630   19.0410 C   0  0  0  0  0  0  0  0  0  0  0  0
    2.7580    2.6020   20.2880 C   0  0  0  0  0  0  0  0  0  0  0  0
    3.4260    2.1140   21.4350 C   0  0  0  0  0  0  0  0  0  0  0  0
    4.5400    1.3200   21.3120 C   0  0  0  0  0  0  0  0  0  0  0  0
    5.0420    0.9640   20.0250 C   0  0  0  0  0  0  0  0  0  0  0  0
    5.0420    0.9590   22.2030 H   0  0  0  0  0  0  0  0  0  0  0  0
    3.0560    2.3830   22.4200 H   0  0  0  0  0  0  0  0  0  0  0  0
    1.8920    3.2480   20.4020 H   0  0  0  0  0  0  0  0  0  0  0  0
    2.7140    2.6300   18.1420 H   0  0  0  0  0  0  0  0  0  0  0  0
    4.2400    1.3630   16.7180 H   0  0  0  0  0  0  0  0  0  0  0  0
    7.3060   -0.9010   18.2900 H   0  0  0  0  0  0  0  0  0  0  0  0
    7.8110    0.4340   21.6050 C   0  0  0  0  0  0  0  0  0  0  0  0
    8.0160    1.6090   21.3750 O   0  0  0  0  0  0  0  0  0  0  0  0
    8.3290   -0.4170   22.7930 C   0  0  1  0  0  0  0  0  0  0  0  0
    7.3730   -0.0610   23.9780 C   0  0  0  0  0  0  0  0  0  0  0  0
    7.8770   -0.7590   25.2640 N   0  0  0  0  0  0  0  0  0  0  0  0
    6.9960   -0.9760   26.5270 C   0  0  0  0  0  0  0  0  0  0  0  0
    6.7760   -2.4380   26.7680 C   0  0  0  0  0  0  0  0  0  0  0  0
    5.6420   -3.2640   26.6030 C   0  0  0  0  0  0  0  0  0  0  0  0
    5.9240   -4.5460   26.8230 N   0  0  0  0  0  0  0  0  0  0  0  0
    7.2270   -4.5480   27.1450 N   0  0  0  0  0  0  0  0  0  0  0  0
    7.7760   -3.3100   27.1320 C   0  0  0  0  0  0  0  0  0  0  0  0
    8.8170   -3.1110   27.3450 H   0  0  0  0  0  0  0  0  0  0  0  0
    7.6800   -5.4310   27.3370 H   0  0  0  0  0  0  0  0  0  0  0  0
    4.6430   -2.9710   26.2940 H   0  0  0  0  0  0  0  0  0  0  0  0
    6.0800   -0.4100   26.3680 H   0  0  0  0  0  0  0  0  0  0  0  0
    7.5550   -0.5250   27.3520 H   0  0  0  0  0  0  0  0  0  0  0  0
    9.3690   -0.6770   25.3810 C   0  0  0  0  0  0  0  0  0  0  0  0
    9.4920   -0.6570   25.3680 O   0  0  0  0  0  0  0  0  0  0  0  0
   10.3800   -0.1890   24.4280 C   0  0  0  0  0  0  0  0  0  0  0  0
   11.7170    0.3260   24.5980 C   0  0  0  0  0  0  0  0  0  0  0  0
   12.5430    0.4860   23.5170 C   0  0  0  0  0  0  0  0  0  0  0  0
   12.0500    0.2340   22.2470 C   0  0  0  0  0  0  0  0  0  0  0  0
   12.9330    0.2960   21.2490 F   0  0  0  0  0  0  0  0  0  0  0  0
   10.7090   -0.0280   22.0260 C   0  0  0  0  0  0  0  0  0  0  0  0
    9.8380   -0.1860   23.1240 C   0  0  0  0  0  0  0  0  0  0  0  0
   10.3190   -0.0710   21.0080 H   0  0  0  0  0  0  0  0  0  0  0  0
   13.5680    0.7870   23.6820 H   0  0  0  0  0  0  0  0  0  0  0  0
   12.1540    0.6100   25.5590 H   0  0  0  0  0  0  0  0  0  0  0  0
    7.3820    1.0190   24.1560 H   0  0  0  0  0  0  0  0  0  0  0  0
    6.3550   -0.4150   23.7950 H   0  0  0  0  0  0  0  0  0  0  0  0
    5.9390   -1.9180   21.7840 H   0  0  0  0  0  0  0  0  0  0  0  0
    6.9520   -2.4150   20.4290 H   0  0  0  0  0  0  0  0  0  0  0  0
    8.9680   -2.1640   21.6990 H   0  0  0  0  0  0  0  0  0  0  0  0
    7.8350   -3.9360   22.9640 H   0  0  0  0  0  0  0  0  0  0  0  0
    6.7670   -2.7600   23.7440 H   0  0  0  0  0  0  0  0  0  0  0  0
    8.4560   -2.8110   24.2060 H   0  0  0  0  0  0  0  0  0  0  0  0
  1  2  1  0
  1 54  1  0
  1 55  1  0
  1 56  1  0
  2  3  1  0
  2 23  1  0
  2 53  1  6
  3  4  1  0
  3 51  1  0
  3 52  1  0
  4  5  1  0
  4 21  1  0
  5  6  2  0
  5 14  1  0
  6  7  1  0
  6 20  1  0
  7  8  2  0
  8  9  1  0
  8 19  1  0
  9 10  1  0
  9 14  2  0
 10 11  2  0
 10 18  1  0
 11 12  1  0
 11 17  1  0
 12 13  2  0
 12 16  1  0
 13 14  1  0
 13 15  1  0
 21 22  2  0
 23 21  1  0
 23 24  1  1
 23 45  1  0
 24 25  1  0
 24 49  1  0
 24 50  1  0
 25 26  1  0
 25 37  1  0
 26 27  1  0
 26 35  1  0
 26 36  1  0
 27 28  1  0
 27 31  2  0
 28 29  2  0
 28 34  1  0
 29 30  1  0
 30 31  1  0
 30 33  1  0
 31 32  1  0
 37 38  2  0
 37 39  1  0
 39 40  2  0
 39 45  1  0
 40 41  1  0
 40 48  1  0
 41 42  2  0
 41 47  1  0
 42 43  1  0
 42 44  1  0
 44 45  2  0
 44 46  1  0
M  END
>  <MODEL>  (91) 
       1

>  <ApoScore>  (91) 
23.1574

$$$$
mol92_score_19.4186
     RDKit          3D

 47 50  0  0  1  0  0  0  0  0999 V2000
    8.2800    1.5910   20.8580 O   0  0  0  0  0  0  0  0  0  0  0  0
    7.8670    0.6560   21.5170 C   0  0  0  0  0  0  0  0  0  0  0  0
    6.9580   -0.4230   20.9140 C   0  0  0  0  0  0  0  0  0  0  0  0
    6.1150    0.0900   19.7750 C   0  0  0  0  0  0  0  0  0  0  0  0
    6.4350   -0.2060   18.4770 C   0  0  0  0  0  0  0  0  0  0  0  0
    5.7720    0.2430   17.3780 N   0  0  0  0  0  0  0  0  0  0  0  0
    4.7430    1.0260   17.5850 C   0  0  0  0  0  0  0  0  0  0  0  0
    4.2850    1.4120   18.8730 C   0  0  0  0  0  0  0  0  0  0  0  0
    3.1690    2.2670   19.0470 C   0  0  0  0  0  0  0  0  0  0  0  0
    2.7680    2.6340   20.3010 C   0  0  0  0  0  0  0  0  0  0  0  0
    3.4630    2.1650   21.4360 C   0  0  0  0  0  0  0  0  0  0  0  0
    4.5510    1.3390   21.2950 C   0  0  0  0  0  0  0  0  0  0  0  0
    4.9890    0.9360   20.0040 C   0  0  0  0  0  0  0  0  0  0  0  0
    5.0870    0.9950   22.1790 H   0  0  0  0  0  0  0  0  0  0  0  0
    3.1360    2.4640   22.4280 H   0  0  0  0  0  0  0  0  0  0  0  0
    1.9210    3.3000   20.4280 H   0  0  0  0  0  0  0  0  0  0  0  0
    2.6620    2.6340   18.1580 H   0  0  0  0  0  0  0  0  0  0  0  0
    4.2120    1.3890   16.7030 H   0  0  0  0  0  0  0  0  0  0  0  0
    7.2830   -0.8540   18.2500 H   0  0  0  0  0  0  0  0  0  0  0  0
    6.3420   -0.8560   21.7080 H   0  0  0  0  0  0  0  0  0  0  0  0
    7.6010   -1.2320   20.5420 H   0  0  0  0  0  0  0  0  0  0  0  0
    8.1880    0.5050   22.8600 N   0  0  0  0  0  0  0  0  0  0  0  0
    7.8490   -0.6380   23.6110 C   0  0  0  0  0  0  0  0  0  0  0  0
    6.8050   -0.6580   24.4570 C   0  0  0  0  0  0  0  0  0  0  0  0
    6.0480    0.5230   24.8850 C   0  0  0  0  0  0  0  0  0  0  0  0
    6.5910    1.6240   25.4400 C   0  0  0  0  0  0  0  0  0  0  0  0
    8.0120    1.7490   25.8100 C   0  0  0  0  0  0  0  0  0  0  0  0
    9.0350    1.6170   24.9650 C   0  0  0  0  0  0  0  0  0  0  0  0
    8.9710    1.6270   23.4440 C   0  0  1  0  0  0  0  0  0  0  0  0
   10.3800    1.6290   22.8740 C   0  0  0  0  0  0  0  0  0  0  0  0
   10.9300    2.7710   22.2940 C   0  0  0  0  0  0  0  0  0  0  0  0
   12.2600    2.7740   21.8750 C   0  0  0  0  0  0  0  0  0  0  0  0
   13.0450    1.6350   22.0650 C   0  0  0  0  0  0  0  0  0  0  0  0
   12.4650    0.4670   22.5510 C   0  0  0  0  0  0  0  0  0  0  0  0
   11.1400    0.4700   22.9800 C   0  0  0  0  0  0  0  0  0  0  0  0
   10.6840   -0.4070   23.4500 H   0  0  0  0  0  0  0  0  0  0  0  0
   13.0420   -0.4520   22.5630 H   0  0  0  0  0  0  0  0  0  0  0  0
   14.1130    1.6300   21.8210 H   0  0  0  0  0  0  0  0  0  0  0  0
   12.6620    3.6420   21.3550 H   0  0  0  0  0  0  0  0  0  0  0  0
   10.3110    3.6650   22.1880 H   0  0  0  0  0  0  0  0  0  0  0  0
    8.4590    2.5280   23.0930 H   0  0  0  0  0  0  0  0  0  0  0  0
   10.0500    1.5880   25.3620 H   0  0  0  0  0  0  0  0  0  0  0  0
    8.2070    1.9930   26.8590 H   0  0  0  0  0  0  0  0  0  0  0  0
    5.9540    2.4580   25.7260 H   0  0  0  0  0  0  0  0  0  0  0  0
    4.9570    0.4600   24.8320 H   0  0  0  0  0  0  0  0  0  0  0  0
    6.5180   -1.6050   24.9090 H   0  0  0  0  0  0  0  0  0  0  0  0
    8.4300   -1.5380   23.3790 H   0  0  0  0  0  0  0  0  0  0  0  0
  1  2  2  0
  2  3  1  0
  2 22  1  0
  3  4  1  0
  3 20  1  0
  3 21  1  0
  4  5  2  0
  4 13  1  0
  5  6  1  0
  5 19  1  0
  6  7  2  0
  7  8  1  0
  7 18  1  0
  8  9  1  0
  8 13  2  0
  9 10  2  0
  9 17  1  0
 10 11  1  0
 10 16  1  0
 11 12  2  0
 11 15  1  0
 12 13  1  0
 12 14  1  0
 22 23  1  0
 22 29  1  0
 23 24  2  0
 23 47  1  0
 24 25  1  0
 24 46  1  0
 25 26  2  0
 25 45  1  0
 26 27  1  0
 26 44  1  0
 27 28  2  0
 27 43  1  0
 28 29  1  0
 28 42  1  0
 29 30  1  0
 29 41  1  1
 30 31  2  0
 30 35  1  0
 31 32  1  0
 31 40  1  0
 32 33  2  0
 32 39  1  0
 33 34  1  0
 33 38  1  0
 34 35  2  0
 34 37  1  0
 35 36  1  0
M  END
>  <MODEL>  (92) 
       1

>  <ApoScore>  (92) 
19.4186

$$$$
mol93_score_22.0478
     RDKit          3D

 58 62  0  0  1  0  0  0  0  0999 V2000
    6.5440    4.4920   21.3820 C   0  0  0  0  0  0  0  0  0  0  0  0
    6.9200    3.5010   22.3960 N   0  0  0  0  0  0  0  0  0  0  0  0
    7.9230    3.9590   23.3820 C   0  0  0  0  0  0  0  0  0  0  0  0
    8.1040    2.9280   24.4990 C   0  0  0  0  0  0  0  0  0  0  0  0
    8.7190    1.7000   24.0100 N   0  0  0  0  0  0  0  0  0  0  0  0
    7.9780    0.4560   23.8780 C   0  0  0  0  0  0  0  0  0  0  0  0
    8.3720   -0.3470   22.6100 C   0  0  2  0  0  0  0  0  0  0  0  0
    7.7930    0.3620   21.3790 C   0  0  0  0  0  0  0  0  0  0  0  0
    8.0320    1.5110   21.0190 O   0  0  0  0  0  0  0  0  0  0  0  0
    6.8740   -0.4440   20.7780 N   0  0  0  0  0  0  0  0  0  0  0  0
    6.0960    0.0940   19.7230 C   0  0  0  0  0  0  0  0  0  0  0  0
    6.4410   -0.1900   18.4300 C   0  0  0  0  0  0  0  0  0  0  0  0
    5.7550    0.2620   17.3580 N   0  0  0  0  0  0  0  0  0  0  0  0
    4.7240    1.0370   17.5870 C   0  0  0  0  0  0  0  0  0  0  0  0
    4.2990    1.4460   18.8830 C   0  0  0  0  0  0  0  0  0  0  0  0
    3.1960    2.3190   19.0710 C   0  0  0  0  0  0  0  0  0  0  0  0
    2.8160    2.7000   20.3290 C   0  0  0  0  0  0  0  0  0  0  0  0
    3.5210    2.2310   21.4580 C   0  0  0  0  0  0  0  0  0  0  0  0
    4.5980    1.3890   21.3030 C   0  0  0  0  0  0  0  0  0  0  0  0
    5.0120    0.9700   20.0030 C   0  0  0  0  0  0  0  0  0  0  0  0
    5.1230    1.0250   22.1830 H   0  0  0  0  0  0  0  0  0  0  0  0
    3.2090    2.5420   22.4520 H   0  0  0  0  0  0  0  0  0  0  0  0
    1.9720    3.3690   20.4650 H   0  0  0  0  0  0  0  0  0  0  0  0
    2.6720    2.6700   18.1880 H   0  0  0  0  0  0  0  0  0  0  0  0
    4.1670    1.3920   16.7190 H   0  0  0  0  0  0  0  0  0  0  0  0
    7.3150   -0.8080   18.2310 H   0  0  0  0  0  0  0  0  0  0  0  0
    6.4320   -1.5260   21.6420 C   0  0  0  0  0  0  0  0  0  0  0  0
    7.6630   -1.7310   22.5310 C   0  0  2  0  0  0  0  0  0  0  0  0
    7.3980   -2.4200   23.8580 C   0  0  0  0  0  0  0  0  0  0  0  0
    6.9630   -3.4110   23.7000 H   0  0  0  0  0  0  0  0  0  0  0  0
    8.3310   -2.5380   24.4200 H   0  0  0  0  0  0  0  0  0  0  0  0
    6.7020   -1.8420   24.4730 H   0  0  0  0  0  0  0  0  0  0  0  0
    8.3150   -2.3780   21.9470 H   0  0  0  0  0  0  0  0  0  0  0  0
    6.1830   -2.4140   21.0520 H   0  0  0  0  0  0  0  0  0  0  0  0
    5.5440   -1.2440   22.2300 H   0  0  0  0  0  0  0  0  0  0  0  0
    9.8840   -0.4160   22.5190 C   0  0  0  0  0  0  0  0  0  0  0  0
   10.5150   -1.3690   21.7080 C   0  0  0  0  0  0  0  0  0  0  0  0
   11.8740   -1.3150   21.5010 C   0  0  0  0  0  0  0  0  0  0  0  0
   12.3890   -2.1830   20.6090 F   0  0  0  0  0  0  0  0  0  0  0  0
   12.6740   -0.3730   22.1480 C   0  0  0  0  0  0  0  0  0  0  0  0
   12.0660    0.5450   22.9790 C   0  0  0  0  0  0  0  0  0  0  0  0
   10.6770    0.5680   23.1210 C   0  0  0  0  0  0  0  0  0  0  0  0
   10.0760    1.7280   23.8520 C   0  0  0  0  0  0  0  0  0  0  0  0
   10.7690    2.6560   24.2520 O   0  0  0  0  0  0  0  0  0  0  0  0
   12.6690    1.2770   23.5080 H   0  0  0  0  0  0  0  0  0  0  0  0
   13.7450   -0.3370   21.9900 H   0  0  0  0  0  0  0  0  0  0  0  0
    9.9820   -2.1570   21.1900 H   0  0  0  0  0  0  0  0  0  0  0  0
    8.1690   -0.1630   24.7640 H   0  0  0  0  0  0  0  0  0  0  0  0
    6.9060    0.6720   23.8300 H   0  0  0  0  0  0  0  0  0  0  0  0
    7.1410    2.6830   24.9610 H   0  0  0  0  0  0  0  0  0  0  0  0
    8.7710    3.3280   25.2660 H   0  0  0  0  0  0  0  0  0  0  0  0
    8.8900    4.1020   22.8860 H   0  0  0  0  0  0  0  0  0  0  0  0
    7.6200    4.9250   23.8010 H   0  0  0  0  0  0  0  0  0  0  0  0
    6.0550    3.2200   22.8870 H   0  0  0  0  0  0  0  0  0  0  0  0
    7.2960    2.6620   21.9170 H   0  0  0  0  0  0  0  0  0  0  0  0
    5.6510    4.1450   20.8530 H   0  0  0  0  0  0  0  0  0  0  0  0
    7.3540    4.6290   20.6630 H   0  0  0  0  0  0  0  0  0  0  0  0
    6.3290    5.4590   21.8470 H   0  0  0  0  0  0  0  0  0  0  0  0
  1  2  1  0
  1 56  1  0
  1 57  1  0
  1 58  1  0
  2  3  1  0
  2 54  1  0
  2 55  1  0
  3  4  1  0
  3 52  1  0
  3 53  1  0
  4  5  1  0
  4 50  1  0
  4 51  1  0
  5  6  1  0
  5 43  1  0
  7  6  1  1
  6 48  1  0
  6 49  1  0
  7  8  1  0
  7 28  1  0
  7 36  1  0
  8  9  2  0
  8 10  1  0
 10 11  1  0
 10 27  1  0
 11 12  2  0
 11 20  1  0
 12 13  1  0
 12 26  1  0
 13 14  2  0
 14 15  1  0
 14 25  1  0
 15 16  1  0
 15 20  2  0
 16 17  2  0
 16 24  1  0
 17 18  1  0
 17 23  1  0
 18 19  2  0
 18 22  1  0
 19 20  1  0
 19 21  1  0
 27 28  1  0
 27 34  1  0
 27 35  1  0
 28 29  1  0
 28 33  1  6
 29 30  1  0
 29 31  1  0
 29 32  1  0
 36 37  1  0
 36 42  2  0
 37 38  2  0
 37 47  1  0
 38 39  1  0
 38 40  1  0
 40 41  2  0
 40 46  1  0
 41 42  1  0
 41 45  1  0
 42 43  1  0
 43 44  2  0
M  CHG  1   2   1
M  END
>  <MODEL>  (93) 
       1

>  <ApoScore>  (93) 
22.0478

$$$$
mol94_score_26.7933
     RDKit          3D

 65 69  0  0  0  0  0  0  0  0999 V2000
    4.4450   -5.4570   26.8570 C   0  0  0  0  0  0  0  0  0  0  0  0
    5.7760   -5.3280   26.1300 C   0  0  0  0  0  0  0  0  0  0  0  0
    5.8830   -4.0050   25.4180 C   0  0  0  0  0  0  0  0  0  0  0  0
    5.1700   -3.6680   24.5130 O   0  0  0  0  0  0  0  0  0  0  0  0
    6.9700   -3.0550   25.9390 N   0  0  2  0  0  0  0  0  0  0  0  0
    6.4030   -1.8770   26.7880 C   0  0  0  0  0  0  0  0  0  0  0  0
    5.8070   -0.8450   25.8480 C   0  0  0  0  0  0  0  0  0  0  0  0
    6.9200   -0.2160   25.0160 C   0  0  0  0  0  0  0  0  0  0  0  0
    7.8060   -1.2590   24.3430 C   0  0  0  0  0  0  0  0  0  0  0  0
    8.5980   -0.9500   23.2210 C   0  0  0  0  0  0  0  0  0  0  0  0
    8.5730    0.3690   22.6790 N   0  0  0  0  0  0  0  0  0  0  0  0
    9.4000    1.3520   23.3860 C   0  0  0  0  0  0  0  0  0  0  0  0
   10.8880    1.1400   23.1860 C   0  0  0  0  0  0  0  0  0  0  0  0
   11.5190    1.8720   22.1880 C   0  0  0  0  0  0  0  0  0  0  0  0
   12.8390    1.6120   21.8390 C   0  0  0  0  0  0  0  0  0  0  0  0
   13.5440    0.6270   22.5100 C   0  0  0  0  0  0  0  0  0  0  0  0
   12.9420   -0.0430   23.5610 C   0  0  0  0  0  0  0  0  0  0  0  0
   13.8930   -1.2240   24.4240 Cl  0  0  0  0  0  0  0  0  0  0  0  0
   11.6290    0.2140   23.9290 C   0  0  0  0  0  0  0  0  0  0  0  0
   11.1860   -0.3870   24.7200 H   0  0  0  0  0  0  0  0  0  0  0  0
   14.5510    0.3480   22.2460 H   0  0  0  0  0  0  0  0  0  0  0  0
   13.3180    2.1610   21.0370 H   0  0  0  0  0  0  0  0  0  0  0  0
   10.9350    2.6360   21.6790 H   0  0  0  0  0  0  0  0  0  0  0  0
    9.1610    1.2580   24.4510 H   0  0  0  0  0  0  0  0  0  0  0  0
    9.1240    2.3500   23.0310 H   0  0  0  0  0  0  0  0  0  0  0  0
    8.0100    0.6690   21.4540 C   0  0  0  0  0  0  0  0  0  0  0  0
    8.2400    1.7180   20.8750 O   0  0  0  0  0  0  0  0  0  0  0  0
    7.0390   -0.3850   20.8930 C   0  0  0  0  0  0  0  0  0  0  0  0
    6.1720    0.1080   19.7720 C   0  0  0  0  0  0  0  0  0  0  0  0
    6.4800   -0.2090   18.4760 C   0  0  0  0  0  0  0  0  0  0  0  0
    5.8040    0.2140   17.3750 N   0  0  0  0  0  0  0  0  0  0  0  0
    4.7790    1.0050   17.5820 C   0  0  0  0  0  0  0  0  0  0  0  0
    4.3300    1.4090   18.8690 C   0  0  0  0  0  0  0  0  0  0  0  0
    3.2100    2.2640   19.0330 C   0  0  0  0  0  0  0  0  0  0  0  0
    2.7920    2.6260   20.2840 C   0  0  0  0  0  0  0  0  0  0  0  0
    3.4780    2.1510   21.4230 C   0  0  0  0  0  0  0  0  0  0  0  0
    4.5720    1.3310   21.2900 C   0  0  0  0  0  0  0  0  0  0  0  0
    5.0350    0.9410   20.0030 C   0  0  0  0  0  0  0  0  0  0  0  0
    5.0900    0.9860   22.1800 H   0  0  0  0  0  0  0  0  0  0  0  0
    3.1340    2.4470   22.4100 H   0  0  0  0  0  0  0  0  0  0  0  0
    1.9340    3.2820   20.4090 H   0  0  0  0  0  0  0  0  0  0  0  0
    2.6970    2.6280   18.1450 H   0  0  0  0  0  0  0  0  0  0  0  0
    4.2370    1.3640   16.7060 H   0  0  0  0  0  0  0  0  0  0  0  0
    7.3300   -0.8610   18.2730 H   0  0  0  0  0  0  0  0  0  0  0  0
    6.4300   -0.7680   21.7200 H   0  0  0  0  0  0  0  0  0  0  0  0
    7.6470   -1.2340   20.5490 H   0  0  0  0  0  0  0  0  0  0  0  0
    9.4890   -1.8750   22.6820 C   0  0  0  0  0  0  0  0  0  0  0  0
    9.6350   -3.1310   23.2590 C   0  0  0  0  0  0  0  0  0  0  0  0
    8.8410   -3.4710   24.3460 C   0  0  0  0  0  0  0  0  0  0  0  0
    7.9110   -2.5560   24.8520 C   0  0  0  0  0  0  0  0  0  0  0  0
    8.9450   -4.4580   24.7960 H   0  0  0  0  0  0  0  0  0  0  0  0
   10.3770   -3.8280   22.8750 H   0  0  0  0  0  0  0  0  0  0  0  0
   10.1310   -1.5710   21.8560 H   0  0  0  0  0  0  0  0  0  0  0  0
    7.5320    0.4050   25.6860 H   0  0  0  0  0  0  0  0  0  0  0  0
    6.4920    0.4600   24.2710 H   0  0  0  0  0  0  0  0  0  0  0  0
    5.0990   -1.3490   25.1860 H   0  0  0  0  0  0  0  0  0  0  0  0
    5.2650   -0.0850   26.4190 H   0  0  0  0  0  0  0  0  0  0  0  0
    7.2390   -1.4580   27.3590 H   0  0  0  0  0  0  0  0  0  0  0  0
    5.6680   -2.2770   27.4930 H   0  0  0  0  0  0  0  0  0  0  0  0
    7.5560   -3.6330   26.5680 H   0  0  0  0  0  0  0  0  0  0  0  0
    6.6250   -5.4420   26.8120 H   0  0  0  0  0  0  0  0  0  0  0  0
    5.8460   -6.0850   25.3450 H   0  0  0  0  0  0  0  0  0  0  0  0
    4.3750   -6.4400   27.3230 H   0  0  0  0  0  0  0  0  0  0  0  0
    4.3480   -4.6940   27.6320 H   0  0  0  0  0  0  0  0  0  0  0  0
    3.6230   -5.3370   26.1500 H   0  0  0  0  0  0  0  0  0  0  0  0
  1  2  1  0
  1 63  1  0
  1 64  1  0
  1 65  1  0
  2  3  1  0
  2 61  1  0
  2 62  1  0
  3  4  2  0
  3  5  1  0
  5  6  1  0
  5 50  1  0
  5 60  1  1
  6  7  1  0
  6 58  1  0
  6 59  1  0
  7  8  1  0
  7 56  1  0
  7 57  1  0
  8  9  1  0
  8 54  1  0
  8 55  1  0
  9 10  1  0
  9 50  2  0
 10 11  1  0
 10 47  2  0
 11 12  1  0
 11 26  1  0
 12 13  1  0
 12 24  1  0
 12 25  1  0
 13 14  2  0
 13 19  1  0
 14 15  1  0
 14 23  1  0
 15 16  2  0
 15 22  1  0
 16 17  1  0
 16 21  1  0
 17 18  1  0
 17 19  2  0
 19 20  1  0
 26 27  2  0
 26 28  1  0
 28 29  1  0
 28 45  1  0
 28 46  1  0
 29 30  2  0
 29 38  1  0
 30 31  1  0
 30 44  1  0
 31 32  2  0
 32 33  1  0
 32 43  1  0
 33 34  1  0
 33 38  2  0
 34 35  2  0
 34 42  1  0
 35 36  1  0
 35 41  1  0
 36 37  2  0
 36 40  1  0
 37 38  1  0
 37 39  1  0
 47 48  1  0
 47 53  1  0
 48 49  2  0
 48 52  1  0
 49 50  1  0
 49 51  1  0
M  CHG  1   5   1
M  END
>  <MODEL>  (94) 
       1

>  <ApoScore>  (94) 
26.7933

$$$$
mol95_score_24.3362
     RDKit          3D

 67 71  0  0  1  0  0  0  0  0999 V2000
    7.0580    3.8240   21.1300 C   0  0  0  0  0  0  0  0  0  0  0  0
    7.3420    3.2510   22.4350 N   0  0  0  0  0  0  0  0  0  0  0  0
    8.5650    3.4970   23.0020 C   0  0  0  0  0  0  0  0  0  0  0  0
    9.2530    4.4440   22.6790 O   0  0  0  0  0  0  0  0  0  0  0  0
    8.9930    2.5180   24.1060 C   0  0  0  0  0  0  0  0  0  0  0  0
    9.2580    1.1750   23.6290 N   0  0  0  0  0  0  0  0  0  0  0  0
    8.1360    0.2310   23.5710 C   0  0  0  0  0  0  0  0  0  0  0  0
    8.2800   -0.7870   22.3620 C   0  0  2  0  0  0  0  0  0  0  0  0
    7.8530    0.0450   21.0960 C   0  0  0  0  0  0  0  0  0  0  0  0
    8.5260    0.8740   20.5130 O   0  0  0  0  0  0  0  0  0  0  0  0
    6.5500   -0.2510   20.7800 N   0  0  0  0  0  0  0  0  0  0  0  0
    5.8860    0.3010   19.6530 C   0  0  0  0  0  0  0  0  0  0  0  0
    6.3160   -0.0110   18.3860 C   0  0  0  0  0  0  0  0  0  0  0  0
    5.7120    0.4120   17.2500 N   0  0  0  0  0  0  0  0  0  0  0  0
    4.6580    1.1820   17.3740 C   0  0  0  0  0  0  0  0  0  0  0  0
    4.0980    1.5790   18.6230 C   0  0  0  0  0  0  0  0  0  0  0  0
    2.9400    2.4020   18.7070 C   0  0  0  0  0  0  0  0  0  0  0  0
    2.4330    2.7710   19.9220 C   0  0  0  0  0  0  0  0  0  0  0  0
    3.0650    2.3480   21.1100 C   0  0  0  0  0  0  0  0  0  0  0  0
    4.1930    1.5630   21.0560 C   0  0  0  0  0  0  0  0  0  0  0  0
    4.7300    1.1350   19.8100 C   0  0  0  0  0  0  0  0  0  0  0  0
    4.6850    1.2760   21.9800 H   0  0  0  0  0  0  0  0  0  0  0  0
    2.6600    2.6470   22.0710 H   0  0  0  0  0  0  0  0  0  0  0  0
    1.5470    3.3980   19.9820 H   0  0  0  0  0  0  0  0  0  0  0  0
    2.4770    2.7340   17.7820 H   0  0  0  0  0  0  0  0  0  0  0  0
    4.1820    1.5270   16.4540 H   0  0  0  0  0  0  0  0  0  0  0  0
    7.1770   -0.6620   18.2470 H   0  0  0  0  0  0  0  0  0  0  0  0
    5.9280   -1.2010   21.6700 C   0  0  0  0  0  0  0  0  0  0  0  0
    7.1210   -1.8390   22.3840 C   0  0  2  0  0  0  0  0  0  0  0  0
    6.7070   -2.4470   23.7220 C   0  0  0  0  0  0  0  0  0  0  0  0
    6.3900   -4.1930   23.4820 S   0  0  0  0  0  0  0  0  0  0  0  0
    5.1130   -4.3080   22.7900 O   0  0  0  0  0  0  0  0  0  0  0  0
    7.5850   -4.7980   22.9090 O   0  0  0  0  0  0  0  0  0  0  0  0
    6.2250   -4.7240   25.0670 N   0  0  0  0  0  0  0  0  0  0  0  0
    7.4910   -5.1090   25.6970 C   0  0  0  0  0  0  0  0  0  0  0  0
    7.9990   -5.9160   25.1560 H   0  0  0  0  0  0  0  0  0  0  0  0
    7.2790   -5.4270   26.7220 H   0  0  0  0  0  0  0  0  0  0  0  0
    8.1650   -4.2490   25.7520 H   0  0  0  0  0  0  0  0  0  0  0  0
    5.1150   -5.6500   25.3010 C   0  0  0  0  0  0  0  0  0  0  0  0
    5.2410   -6.6160   24.7910 H   0  0  0  0  0  0  0  0  0  0  0  0
    5.0430   -5.8190   26.3790 H   0  0  0  0  0  0  0  0  0  0  0  0
    4.1890   -5.1870   24.9570 H   0  0  0  0  0  0  0  0  0  0  0  0
    5.7860   -1.9920   24.1030 H   0  0  0  0  0  0  0  0  0  0  0  0
    7.4540   -2.3670   24.5150 H   0  0  0  0  0  0  0  0  0  0  0  0
    7.5150   -2.6440   21.7580 H   0  0  0  0  0  0  0  0  0  0  0  0
    5.2590   -0.7060   22.3890 H   0  0  0  0  0  0  0  0  0  0  0  0
    5.3330   -1.9270   21.1090 H   0  0  0  0  0  0  0  0  0  0  0  0
    9.7130   -1.3130   22.3340 C   0  0  0  0  0  0  0  0  0  0  0  0
   10.4070   -2.6690   21.9370 C   0  0  0  0  0  0  0  0  0  0  0  0
   11.7910   -2.5620   21.9890 C   0  0  0  0  0  0  0  0  0  0  0  0
   12.6330   -2.6660   19.7710 F   0  0  0  0  0  0  0  0  0  0  0  0
   11.9030   -2.5410   22.3070 C   0  0  0  0  0  0  0  0  0  0  0  0
   12.1870   -1.1850   22.6190 C   0  0  0  0  0  0  0  0  0  0  0  0
   10.7980   -0.5170   22.8280 C   0  0  0  0  0  0  0  0  0  0  0  0
   10.5900    0.8120   23.4170 C   0  0  0  0  0  0  0  0  0  0  0  0
   11.5080    1.5670   23.6990 O   0  0  0  0  0  0  0  0  0  0  0  0
   12.7930   -1.1280   23.5190 H   0  0  0  0  0  0  0  0  0  0  0  0
   12.2100   -3.4930   19.7710 H   0  0  0  0  0  0  0  0  0  0  0  0
    9.9060   -3.3240   21.2290 H   0  0  0  0  0  0  0  0  0  0  0  0
    8.0500   -0.3090   24.5210 H   0  0  0  0  0  0  0  0  0  0  0  0
    7.2120    0.7880   23.4600 H   0  0  0  0  0  0  0  0  0  0  0  0
    9.9170    2.9050   24.5370 H   0  0  0  0  0  0  0  0  0  0  0  0
    8.2270    2.4750   24.8900 H   0  0  0  0  0  0  0  0  0  0  0  0
    6.8980    2.3660   22.6140 H   0  0  0  0  0  0  0  0  0  0  0  0
    7.3640    4.8710   21.1260 H   0  0  0  0  0  0  0  0  0  0  0  0
    7.6170    3.2660   20.3670 H   0  0  0  0  0  0  0  0  0  0  0  0
    5.9840    3.7570   20.9290 H   0  0  0  0  0  0  0  0  0  0  0  0
  1  2  1  0
  1 65  1  0
  1 66  1  0
  1 67  1  0
  2  3  1  0
  2 64  1  0
  3  4  2  0
  3  5  1  0
  5  6  1  0
  5 62  1  0
  5 63  1  0
  6  7  1  0
  6 55  1  0
  8  7  1  1
  7 60  1  0
  7 61  1  0
  8  9  1  0
  8 29  1  0
  8 48  1  0
  9 10  2  0
  9 11  1  0
 11 12  1  0
 11 28  1  0
 12 13  2  0
 12 21  1  0
 13 14  1  0
 13 27  1  0
 14 15  2  0
 15 16  1  0
 15 26  1  0
 16 17  1  0
 16 21  2  0
 17 18  2  0
 17 25  1  0
 18 19  1  0
 18 24  1  0
 19 20  2  0
 19 23  1  0
 20 21  1  0
 20 22  1  0
 28 29  1  0
 28 46  1  0
 28 47  1  0
 29 30  1  0
 29 45  1  6
 30 31  1  0
 30 43  1  0
 30 44  1  0
 31 32  2  0
 31 33  2  0
 31 34  1  0
 34 35  1  0
 34 39  1  0
 35 36  1  0
 35 37  1  0
 35 38  1  0
 39 40  1  0
 39 41  1  0
 39 42  1  0
 48 49  1  0
 48 54  2  0
 49 50  2  0
 49 59  1  0
 50 51  1  0
 50 52  1  0
 52 53  2  0
 52 58  1  0
 53 54  1  0
 53 57  1  0
 54 55  1  0
 55 56  2  0
M  END
>  <MODEL>  (95) 
       1

>  <ApoScore>  (95) 
24.3362

$$$$
mol96_score_17.4602
     RDKit          3D

 37 39  0  0  0  0  0  0  0  0999 V2000
    8.7090    1.1720   20.6760 O   0  0  0  0  0  0  0  0  0  0  0  0
    7.9120    0.6390   21.4290 C   0  0  0  0  0  0  0  0  0  0  0  0
    6.9410   -0.4360   20.9120 C   0  0  0  0  0  0  0  0  0  0  0  0
    6.1040    0.0860   19.7660 C   0  0  0  0  0  0  0  0  0  0  0  0
    6.4250   -0.2090   18.4660 C   0  0  0  0  0  0  0  0  0  0  0  0
    5.7610    0.2390   17.3670 N   0  0  0  0  0  0  0  0  0  0  0  0
    4.7360    1.0290   17.5760 C   0  0  0  0  0  0  0  0  0  0  0  0
    4.2850    1.4230   18.8640 C   0  0  0  0  0  0  0  0  0  0  0  0
    3.1700    2.2820   19.0410 C   0  0  0  0  0  0  0  0  0  0  0  0
    2.7640    2.6470   20.2960 C   0  0  0  0  0  0  0  0  0  0  0  0
    3.4600    2.1700   21.4290 C   0  0  0  0  0  0  0  0  0  0  0  0
    4.5440    1.3390   21.2850 C   0  0  0  0  0  0  0  0  0  0  0  0
    4.9870    0.9420   19.9960 C   0  0  0  0  0  0  0  0  0  0  0  0
    5.0710    0.9880   22.1690 H   0  0  0  0  0  0  0  0  0  0  0  0
    3.1330    2.4680   22.4210 H   0  0  0  0  0  0  0  0  0  0  0  0
    1.9110    3.3080   20.4320 H   0  0  0  0  0  0  0  0  0  0  0  0
    2.6490    2.6490   18.1590 H   0  0  0  0  0  0  0  0  0  0  0  0
    4.2010    1.3980   16.6970 H   0  0  0  0  0  0  0  0  0  0  0  0
    7.2730   -0.8570   18.2450 H   0  0  0  0  0  0  0  0  0  0  0  0
    7.5580   -1.2620   20.5350 H   0  0  0  0  0  0  0  0  0  0  0  0
    6.3170   -0.8520   21.7150 H   0  0  0  0  0  0  0  0  0  0  0  0
    7.8280    0.9930   22.7470 N   0  0  0  0  0  0  0  0  0  0  0  0
    8.7370    1.9820   23.3140 C   0  0  0  0  0  0  0  0  0  0  0  0
   10.1600    1.4880   23.4610 C   0  0  0  0  0  0  0  0  0  0  0  0
   10.4650    0.5240   24.4190 C   0  0  0  0  0  0  0  0  0  0  0  0
   11.7550    0.0220   24.5190 C   0  0  0  0  0  0  0  0  0  0  0  0
   12.7580    0.4670   23.6670 C   0  0  0  0  0  0  0  0  0  0  0  0
   12.4450    1.4270   22.7140 C   0  0  0  0  0  0  0  0  0  0  0  0
   13.6900    1.9860   21.6350 Cl  0  0  0  0  0  0  0  0  0  0  0  0
   11.1600    1.9450   22.6070 C   0  0  0  0  0  0  0  0  0  0  0  0
   10.9190    2.6720   21.8370 H   0  0  0  0  0  0  0  0  0  0  0  0
   13.7670    0.0710   23.7330 H   0  0  0  0  0  0  0  0  0  0  0  0
   11.9820   -0.7340   25.2640 H   0  0  0  0  0  0  0  0  0  0  0  0
    9.6860    0.1570   25.0830 H   0  0  0  0  0  0  0  0  0  0  0  0
    8.3410    2.2610   24.2930 H   0  0  0  0  0  0  0  0  0  0  0  0
    8.7110    2.8810   22.6940 H   0  0  0  0  0  0  0  0  0  0  0  0
    7.1980    0.5090   23.3620 H   0  0  0  0  0  0  0  0  0  0  0  0
  1  2  2  0
  2  3  1  0
  2 22  1  0
  3  4  1  0
  3 20  1  0
  3 21  1  0
  4  5  2  0
  4 13  1  0
  5  6  1  0
  5 19  1  0
  6  7  2  0
  7  8  1  0
  7 18  1  0
  8  9  1  0
  8 13  2  0
  9 10  2  0
  9 17  1  0
 10 11  1  0
 10 16  1  0
 11 12  2  0
 11 15  1  0
 12 13  1  0
 12 14  1  0
 22 23  1  0
 22 37  1  0
 23 24  1  0
 23 35  1  0
 23 36  1  0
 24 25  2  0
 24 30  1  0
 25 26  1  0
 25 34  1  0
 26 27  2  0
 26 33  1  0
 27 28  1  0
 27 32  1  0
 28 29  1  0
 28 30  2  0
 30 31  1  0
M  END
>  <MODEL>  (96) 
       1

>  <ApoScore>  (96) 
17.4602

$$$$
